1:0:0
     RDKit          3D

 88 93  0  0  1  0  0  0  0  0999 V2000
    1.8036   -8.3569    9.0031 C   0  0  0  0  0  0  0  0  0  0  0  0
    1.0518   -8.4558    7.6492 C   0  0  0  0  0  0  0  0  0  0  0  0
   -0.1284   -9.3966    7.8769 C   0  0  0  0  0  0  0  0  0  0  0  0
    0.4963   -7.0578    7.3001 C   0  0  0  0  0  0  0  0  0  0  0  0
    0.3269   -6.7766    5.7913 C   0  0  0  0  0  0  0  0  0  0  0  0
   -0.6552   -6.2012    5.3668 O   0  0  0  0  0  0  0  0  0  0  0  0
    1.4608   -7.2273    4.8546 C   0  0  2  0  0  0  0  0  0  0  0  0
    1.8254   -8.7045    5.0877 C   0  0  2  0  0  0  0  0  0  0  0  0
    0.7512   -9.6544    4.4864 C   0  0  0  0  0  0  0  0  0  0  0  0
    2.0578   -9.0158    6.5985 C   0  0  0  0  0  0  0  0  0  0  0  0
    3.1903   -8.8323    4.3653 C   0  0  1  0  0  0  0  0  0  0  0  0
    3.0521   -9.2098    3.0103 O   0  0  0  0  0  0  0  0  0  0  0  0
    3.8704   -7.4545    4.5552 C   0  0  1  0  0  0  0  0  0  0  0  0
    4.7407   -6.8406    3.4358 C   0  0  1  0  0  0  0  0  0  0  0  0
    5.4174   -7.7608    2.6199 O   0  0  0  0  0  0  0  0  0  0  0  0
    3.8964   -5.7681    2.6780 C   0  0  1  0  0  0  0  0  0  0  0  0
    3.1013   -6.3947    1.5165 C   0  0  0  0  0  0  0  0  0  0  0  0
    2.8816   -5.3640    3.7370 C   0  0  0  0  0  0  0  0  0  0  0  0
    2.2618   -4.1720    3.7262 C   0  0  0  0  0  0  0  0  0  0  0  0
    2.5221   -3.1624    2.6731 C   0  0  0  0  0  0  0  0  0  0  0  0
    1.7338   -2.2454    2.5137 O   0  0  0  0  0  0  0  0  0  0  0  0
    3.8230   -3.2269    1.8212 C   0  0  2  0  0  0  0  0  0  0  0  0
    3.7598   -2.6608    0.3266 C   0  0  2  0  0  0  0  0  0  0  0  0
    3.6719   -1.1079    0.4609 C   0  0  0  0  0  0  0  0  0  0  0  0
    2.5500   -3.2052   -0.4765 C   0  0  0  0  0  0  0  0  0  0  0  0
    2.4553   -2.7972   -1.9619 C   0  0  0  0  0  0  0  0  0  0  0  0
    3.6894   -3.1786   -2.7514 C   0  0  1  0  0  0  0  0  0  0  0  0
    3.5282   -2.6844   -4.0741 O   0  0  0  0  0  0  0  0  0  0  0  0
    4.9480   -2.6068   -2.0547 C   0  0  0  0  0  0  0  0  0  0  0  0
    6.1449   -3.2003   -2.7849 C   0  0  0  0  0  0  0  0  0  0  0  0
    5.0085   -1.0712   -2.2283 C   0  0  0  0  0  0  0  0  0  0  0  0
    5.0076   -3.0325   -0.5281 C   0  0  2  0  0  0  0  0  0  0  0  0
    5.2844   -4.5261   -0.3388 C   0  0  0  0  0  0  0  0  0  0  0  0
    5.7461   -4.8070    1.0610 C   0  0  0  0  0  0  0  0  0  0  0  0
    4.7200   -4.4822    2.1836 C   0  0  2  0  0  0  0  0  0  0  0  0
    5.6191   -3.9910    3.3322 C   0  0  0  0  0  0  0  0  0  0  0  0
    2.7790   -6.4000    4.8661 C   0  0  1  0  0  0  0  0  0  0  0  0
    3.1172   -5.6976    6.1973 C   0  0  0  0  0  0  0  0  0  0  0  0
    1.1659   -7.9716    9.8023 H   0  0  0  0  0  0  0  0  0  0  0  0
    2.6434   -7.6849    8.9038 H   0  0  0  0  0  0  0  0  0  0  0  0
    2.1904   -9.3254    9.3183 H   0  0  0  0  0  0  0  0  0  0  0  0
   -0.8210   -9.5025    7.0410 H   0  0  0  0  0  0  0  0  0  0  0  0
   -0.7146   -9.0364    8.7163 H   0  0  0  0  0  0  0  0  0  0  0  0
    0.2105  -10.3941    8.1439 H   0  0  0  0  0  0  0  0  0  0  0  0
   -0.4780   -6.9415    7.7864 H   0  0  0  0  0  0  0  0  0  0  0  0
    1.1191   -6.2926    7.7576 H   0  0  0  0  0  0  0  0  0  0  0  0
    1.0493   -7.1596    3.8475 H   0  0  0  0  0  0  0  0  0  0  0  0
    1.0504  -10.7125    4.5247 H   0  0  0  0  0  0  0  0  0  0  0  0
    0.5374   -9.4310    3.4396 H   0  0  0  0  0  0  0  0  0  0  0  0
   -0.2162   -9.5933    4.9871 H   0  0  0  0  0  0  0  0  0  0  0  0
    3.0803   -8.7186    6.8984 H   0  0  0  0  0  0  0  0  0  0  0  0
    2.0586  -10.0955    6.7080 H   0  0  0  0  0  0  0  0  0  0  0  0
    3.7878   -9.6158    4.8256 H   0  0  0  0  0  0  0  0  0  0  0  0
    2.7485  -10.1069    2.9942 H   0  0  0  0  0  0  0  0  0  0  0  0
    4.5193   -7.5780    5.4446 H   0  0  0  0  0  0  0  0  0  0  0  0
    5.5335   -6.3886    4.0253 H   0  0  0  0  0  0  0  0  0  0  0  0
    4.7640   -8.3638    2.2911 H   0  0  0  0  0  0  0  0  0  0  0  0
    3.7493   -6.8199    0.7592 H   0  0  0  0  0  0  0  0  0  0  0  0
    2.4654   -5.6547    1.0652 H   0  0  0  0  0  0  0  0  0  0  0  0
    2.4359   -7.1555    1.8773 H   0  0  0  0  0  0  0  0  0  0  0  0
    1.5852   -3.8881    4.5255 H   0  0  0  0  0  0  0  0  0  0  0  0
    4.3767   -2.4098    2.2738 H   0  0  0  0  0  0  0  0  0  0  0  0
    3.0634   -0.6672   -0.3157 H   0  0  0  0  0  0  0  0  0  0  0  0
    4.6513   -0.6336    0.4533 H   0  0  0  0  0  0  0  0  0  0  0  0
    3.1956   -0.7534    1.3694 H   0  0  0  0  0  0  0  0  0  0  0  0
    2.5024   -4.2872   -0.4542 H   0  0  0  0  0  0  0  0  0  0  0  0
    1.6695   -2.8346    0.0186 H   0  0  0  0  0  0  0  0  0  0  0  0
    1.5758   -3.2425   -2.4082 H   0  0  0  0  0  0  0  0  0  0  0  0
    2.2786   -1.7367   -2.0784 H   0  0  0  0  0  0  0  0  0  0  0  0
    3.7772   -4.2387   -2.8158 H   0  0  0  0  0  0  0  0  0  0  0  0
    2.6638   -2.9308   -4.3728 H   0  0  0  0  0  0  0  0  0  0  0  0
    7.0995   -3.0451   -2.2816 H   0  0  0  0  0  0  0  0  0  0  0  0
    6.2085   -2.8134   -3.7855 H   0  0  0  0  0  0  0  0  0  0  0  0
    5.9786   -4.2570   -2.9627 H   0  0  0  0  0  0  0  0  0  0  0  0
    5.7871   -0.6503   -1.5907 H   0  0  0  0  0  0  0  0  0  0  0  0
    4.0783   -0.5295   -2.0757 H   0  0  0  0  0  0  0  0  0  0  0  0
    5.2525   -0.8443   -3.2437 H   0  0  0  0  0  0  0  0  0  0  0  0
    5.8676   -2.5110   -0.1253 H   0  0  0  0  0  0  0  0  0  0  0  0
    4.4623   -5.1653   -0.6319 H   0  0  0  0  0  0  0  0  0  0  0  0
    6.1208   -4.8098   -0.9419 H   0  0  0  0  0  0  0  0  0  0  0  0
    6.0383   -5.8502    1.1093 H   0  0  0  0  0  0  0  0  0  0  0  0
    6.6873   -4.2536    1.2045 H   0  0  0  0  0  0  0  0  0  0  0  0
    6.1243   -3.0866    3.0216 H   0  0  0  0  0  0  0  0  0  0  0  0
    6.4200   -4.6965    3.4993 H   0  0  0  0  0  0  0  0  0  0  0  0
    5.0901   -3.7869    4.2587 H   0  0  0  0  0  0  0  0  0  0  0  0
    3.2046   -6.3930    7.0378 H   0  0  0  0  0  0  0  0  0  0  0  0
    2.3791   -4.9429    6.4795 H   0  0  0  0  0  0  0  0  0  0  0  0
    4.0825   -5.1723    6.1517 H   0  0  0  0  0  0  0  0  0  0  0  0
  1  2  1  0
  1 39  1  0
  1 40  1  0
  1 41  1  0
  2 10  1  0
  2  3  1  0
  2  4  1  0
  3 42  1  0
  3 43  1  0
  3 44  1  0
  4  5  1  0
  4 45  1  0
  4 46  1  0
  5  6  2  0
  5  7  1  0
  7 37  1  0
  7  8  1  0
  7 47  1  6
  8  9  1  6
  8 10  1  0
  8 11  1  0
  9 48  1  0
  9 49  1  0
  9 50  1  0
 10 51  1  0
 10 52  1  0
 11 12  1  0
 11 13  1  0
 11 53  1  1
 12 54  1  0
 13 37  1  0
 13 14  1  0
 13 55  1  1
 14 15  1  0
 14 16  1  0
 14 56  1  1
 15 57  1  0
 16 35  1  0
 16 17  1  6
 16 18  1  0
 17 58  1  0
 17 59  1  0
 17 60  1  0
 18 19  2  0
 18 37  1  0
 19 20  1  0
 19 61  1  0
 20 21  2  0
 20 22  1  0
 22 35  1  0
 22 23  1  0
 22 62  1  1
 23 32  1  0
 23 24  1  1
 23 25  1  0
 24 63  1  0
 24 64  1  0
 24 65  1  0
 25 26  1  0
 25 66  1  0
 25 67  1  0
 26 27  1  0
 26 68  1  0
 26 69  1  0
 27 28  1  0
 27 29  1  0
 27 70  1  6
 28 71  1  0
 29 30  1  0
 29 31  1  0
 29 32  1  0
 30 72  1  0
 30 73  1  0
 30 74  1  0
 31 75  1  0
 31 76  1  0
 31 77  1  0
 32 33  1  0
 32 78  1  1
 33 34  1  0
 33 79  1  0
 33 80  1  0
 34 35  1  0
 34 81  1  0
 34 82  1  0
 35 36  1  1
 36 83  1  0
 36 84  1  0
 36 85  1  0
 37 38  1  1
 38 86  1  0
 38 87  1  0
 38 88  1  0
M  END
>  <i_m_ct_stereo_status>  (1) 
1

>  <s_m_source_file>  (1) 
/var/tmp/pbs.5076255.sched01/tmpn440o9cr/0yczfkg0t.sdf

>  <i_m_source_file_index>  (1) 
2

>  <i_lp_mmshare_version>  (1) 
48012

>  <i_f3d_flags>  (1) 
0

>  <s_epik_input>  (1) 
W0NIM11DKFtDSDNdKShbQ0gyXTEpW0NIMl1DKD1PKVtDQEhdKFtDQF0xMltDSDNdKVtDQEBdMyhbQ0gzXSlbQ0BASF0oW0NAQEhdMltPSF0pW0NAQEhdKFtPSF0pW0NAQF00KFtDSDNdKUMzPVtDSF1DKD1PKVtDQEBIXTVbQ0BAXTYoW0NIM10pW0NASF0oQyhbQ0gzXSkoW0NIM10pW0NASF0oW09IXSlbQ0gyXVtDSDJdNilbQ0gyXVtDSDJdW0NAXTQ1W0NIM10=

>  <s_epik_cmdline>  (1) 
J2VwaWtfcHl0aG9uJywgJy1waHQnLCAnMi4wJywgJy1waCcsICc3LjAnLCAnLXRuJywgJzgnLCAnLW1hJywgJzIwMCcsICctaW1hZScsICc8aW5maWxlLm1hZT4nLCAnLW9tYWUnLCAnPG91dGZpbGUubWFlPic=

>  <r_lp_tautomer_probability>  (1) 
1

>  <r_epik_Ionization_Penalty>  (1) 
1.89204e-06

>  <r_epik_Ionization_Penalty_Charging>  (1) 
0

>  <r_epik_Ionization_Penalty_Neutral>  (1) 
1.89204e-06

>  <r_epik_State_Penalty>  (1) 
-0

>  <r_epik_Charging_Adjusted_Penalty>  (1) 
0

>  <i_epik_Tot_Q>  (1) 
0

>  <i_epik_Tot_abs_Q>  (1) 
0

>  <s_lp_Force_Field>  (1) 
OPLS3e

>  <r_lp_Energy>  (1) 
109.925

>  <b_lp_Chiralities_Consistent>  (1) 
1

>  <s_lp_Variant>  (1) 
1:0-1

>  <s_i_glide_gridfile>  (1) 
pfpi4k_grid

>  <i_i_glide_lignum>  (1) 
2

>  <i_i_glide_rotatable_bonds>  (1) 
3

>  <r_i_docking_score>  (1) 
-2.67791

>  <r_i_glide_ligand_efficiency>  (1) 
-0.0704713

>  <r_i_glide_ligand_efficiency_sa>  (1) 
-0.236923

>  <r_i_glide_ligand_efficiency_ln>  (1) 
-0.577436

>  <r_i_glide_gscore>  (1) 
-2.67791

>  <r_i_glide_lipo>  (1) 
-0.487269

>  <r_i_glide_hbond>  (1) 
-0.199624

>  <r_i_glide_metal>  (1) 
-0

>  <r_i_glide_rewards>  (1) 
-0.5

>  <r_i_glide_evdw>  (1) 
-19.5195

>  <r_i_glide_ecoul>  (1) 
-3.34512

>  <r_i_glide_erotb>  (1) 
0

>  <r_i_glide_esite>  (1) 
-0.013272

>  <r_i_glide_emodel>  (1) 
-31.2698

>  <r_i_glide_energy>  (1) 
-22.8646

>  <r_i_glide_einternal>  (1) 
0.828267

>  <r_i_glide_intrahb_reward>  (1) 
-0.5

>  <i_i_glide_confnum>  (1) 
1

>  <i_i_glide_posenum>  (1) 
1

>  <r_i_glide_eff_state_penalty>  (1) 
0

>  <ligand_id>  (1) 
1

>  <original_smiles>  (1) 
CC1(C)CC(=O)C2C(C)(C1)C(O)C1C(O)C3(C)C(=CC(=O)C4C5(C)CCC(O)C(C)(C)C5CCC43C)C12C

>  <smiles>  (1) 
[H]OC1([H])C2([H])C([H])(O[H])C3(C([H])([H])[H])C([H])([H])C(C([H])([H])[H])(C([H])([H])[H])C([H])([H])C(=O)C3([H])C2(C([H])([H])[H])C2=C([H])C(=O)C3([H])C4(C([H])([H])[H])C([H])([H])C([H])([H])C([H])(O[H])C(C([H])([H])[H])(C([H])([H])[H])C4([H])C([H])([H])C([H])([H])C3(C([H])([H])[H])C21C([H])([H])[H]

$$$$
1:0:1
     RDKit          3D

 88 93  0  0  1  0  0  0  0  0999 V2000
    0.2865  -10.1109    2.9098 C   0  0  0  0  0  0  0  0  0  0  0  0
    1.4277   -9.8861    3.9349 C   0  0  0  0  0  0  0  0  0  0  0  0
    1.9356  -11.2865    4.3422 C   0  0  0  0  0  0  0  0  0  0  0  0
    2.5479   -9.1122    3.1978 C   0  0  0  0  0  0  0  0  0  0  0  0
    3.3776   -8.1846    4.0929 C   0  0  0  0  0  0  0  0  0  0  0  0
    4.6072   -8.1340    3.9575 O   0  0  0  0  0  0  0  0  0  0  0  0
    2.6701   -7.2879    5.1248 C   0  0  2  0  0  0  0  0  0  0  0  0
    1.7307   -8.1674    5.9922 C   0  0  2  0  0  0  0  0  0  0  0  0
    2.5029   -9.0174    7.0344 C   0  0  0  0  0  0  0  0  0  0  0  0
    0.7913   -9.0618    5.1031 C   0  0  0  0  0  0  0  0  0  0  0  0
    0.8257   -7.1005    6.6573 C   0  0  1  0  0  0  0  0  0  0  0  0
    1.3344   -6.6630    7.9031 O   0  0  0  0  0  0  0  0  0  0  0  0
    0.6697   -5.9475    5.6164 C   0  0  1  0  0  0  0  0  0  0  0  0
    0.6261   -4.4543    6.0418 C   0  0  1  0  0  0  0  0  0  0  0  0
    0.0511   -4.2082    7.3078 O   0  0  0  0  0  0  0  0  0  0  0  0
    2.0377   -3.8167    5.8147 C   0  0  1  0  0  0  0  0  0  0  0  0
    2.9353   -4.0156    7.0497 C   0  0  0  0  0  0  0  0  0  0  0  0
    2.6360   -4.7419    4.7736 C   0  0  0  0  0  0  0  0  0  0  0  0
    3.5780   -4.3335    3.9002 C   0  0  0  0  0  0  0  0  0  0  0  0
    4.1617   -2.9591    4.0073 C   0  0  0  0  0  0  0  0  0  0  0  0
    5.2607   -2.7217    3.4958 O   0  0  0  0  0  0  0  0  0  0  0  0
    3.4154   -1.8027    4.7286 C   0  0  2  0  0  0  0  0  0  0  0  0
    4.3060   -0.6653    5.4391 C   0  0  2  0  0  0  0  0  0  0  0  0
    4.8965    0.1893    4.2716 C   0  0  0  0  0  0  0  0  0  0  0  0
    5.4780   -1.2491    6.2855 C   0  0  0  0  0  0  0  0  0  0  0  0
    6.3060   -0.2093    7.0670 C   0  0  0  0  0  0  0  0  0  0  0  0
    5.4353    0.6537    7.9807 C   0  0  1  0  0  0  0  0  0  0  0  0
    6.2527    1.6003    8.6464 O   0  0  0  0  0  0  0  0  0  0  0  0
    4.2812    1.3472    7.2229 C   0  0  0  0  0  0  0  0  0  0  0  0
    3.3655    2.0666    8.2524 C   0  0  0  0  0  0  0  0  0  0  0  0
    4.7965    2.5088    6.3242 C   0  0  0  0  0  0  0  0  0  0  0  0
    3.4679    0.2673    6.3934 C   0  0  2  0  0  0  0  0  0  0  0  0
    2.5681   -0.6074    7.2916 C   0  0  0  0  0  0  0  0  0  0  0  0
    1.5147   -1.3046    6.4451 C   0  0  0  0  0  0  0  0  0  0  0  0
    2.0352   -2.2701    5.3476 C   0  0  2  0  0  0  0  0  0  0  0  0
    0.9852   -2.0860    4.1973 C   0  0  0  0  0  0  0  0  0  0  0  0
    1.8244   -6.0523    4.6049 C   0  0  1  0  0  0  0  0  0  0  0  0
    1.2937   -6.1728    3.1684 C   0  0  0  0  0  0  0  0  0  0  0  0
    0.6152  -10.6685    2.0314 H   0  0  0  0  0  0  0  0  0  0  0  0
   -0.1143   -9.1602    2.5438 H   0  0  0  0  0  0  0  0  0  0  0  0
   -0.5624  -10.6321    3.3526 H   0  0  0  0  0  0  0  0  0  0  0  0
    2.8153  -11.2399    4.9732 H   0  0  0  0  0  0  0  0  0  0  0  0
    2.2221  -11.8683    3.4660 H   0  0  0  0  0  0  0  0  0  0  0  0
    1.1828  -11.8718    4.8673 H   0  0  0  0  0  0  0  0  0  0  0  0
    3.2092   -9.8344    2.7135 H   0  0  0  0  0  0  0  0  0  0  0  0
    2.1284   -8.5319    2.3722 H   0  0  0  0  0  0  0  0  0  0  0  0
    3.4496   -6.9328    5.7990 H   0  0  0  0  0  0  0  0  0  0  0  0
    1.8404   -9.5306    7.7317 H   0  0  0  0  0  0  0  0  0  0  0  0
    3.1833   -8.4035    7.6209 H   0  0  0  0  0  0  0  0  0  0  0  0
    3.1246   -9.7781    6.5751 H   0  0  0  0  0  0  0  0  0  0  0  0
   -0.0704   -8.5004    4.7418 H   0  0  0  0  0  0  0  0  0  0  0  0
    0.3355   -9.8044    5.7694 H   0  0  0  0  0  0  0  0  0  0  0  0
   -0.1594   -7.5089    6.8961 H   0  0  0  0  0  0  0  0  0  0  0  0
    1.4633   -7.4241    8.4360 H   0  0  0  0  0  0  0  0  0  0  0  0
   -0.2557   -6.1667    5.0902 H   0  0  0  0  0  0  0  0  0  0  0  0
   -0.0850   -4.0404    5.3398 H   0  0  0  0  0  0  0  0  0  0  0  0
    0.5428   -4.7268    7.9270 H   0  0  0  0  0  0  0  0  0  0  0  0
    2.5602   -3.5235    7.9428 H   0  0  0  0  0  0  0  0  0  0  0  0
    3.9409   -3.6596    6.8614 H   0  0  0  0  0  0  0  0  0  0  0  0
    3.0747   -5.0672    7.2876 H   0  0  0  0  0  0  0  0  0  0  0  0
    3.9475   -4.9484    3.0994 H   0  0  0  0  0  0  0  0  0  0  0  0
    3.0795   -1.2385    3.8611 H   0  0  0  0  0  0  0  0  0  0  0  0
    5.8755    0.6073    4.4896 H   0  0  0  0  0  0  0  0  0  0  0  0
    4.2421    1.0176    3.9966 H   0  0  0  0  0  0  0  0  0  0  0  0
    5.0532   -0.3511    3.3428 H   0  0  0  0  0  0  0  0  0  0  0  0
    5.0884   -1.9350    7.0262 H   0  0  0  0  0  0  0  0  0  0  0  0
    6.1674   -1.8292    5.6807 H   0  0  0  0  0  0  0  0  0  0  0  0
    7.0292   -0.7392    7.6839 H   0  0  0  0  0  0  0  0  0  0  0  0
    6.9012    0.4017    6.3932 H   0  0  0  0  0  0  0  0  0  0  0  0
    5.0030    0.0101    8.7433 H   0  0  0  0  0  0  0  0  0  0  0  0
    6.6522    2.1576    8.0071 H   0  0  0  0  0  0  0  0  0  0  0  0
    2.4206    2.3914    7.8104 H   0  0  0  0  0  0  0  0  0  0  0  0
    3.8410    2.9448    8.6932 H   0  0  0  0  0  0  0  0  0  0  0  0
    3.1353    1.4206    9.1010 H   0  0  0  0  0  0  0  0  0  0  0  0
    4.0641    2.8071    5.5698 H   0  0  0  0  0  0  0  0  0  0  0  0
    5.7150    2.2525    5.8023 H   0  0  0  0  0  0  0  0  0  0  0  0
    5.0432    3.4068    6.8931 H   0  0  0  0  0  0  0  0  0  0  0  0
    2.7736    0.8361    5.7711 H   0  0  0  0  0  0  0  0  0  0  0  0
    3.1467   -1.3234    7.8685 H   0  0  0  0  0  0  0  0  0  0  0  0
    2.0070   -0.0297    8.0149 H   0  0  0  0  0  0  0  0  0  0  0  0
    0.8660   -1.8461    7.1317 H   0  0  0  0  0  0  0  0  0  0  0  0
    0.8713   -0.5354    6.0172 H   0  0  0  0  0  0  0  0  0  0  0  0
    1.0369   -1.0743    3.7862 H   0  0  0  0  0  0  0  0  0  0  0  0
   -0.0500   -2.1563    4.5372 H   0  0  0  0  0  0  0  0  0  0  0  0
    1.1229   -2.7706    3.3601 H   0  0  0  0  0  0  0  0  0  0  0  0
    0.6396   -7.0278    3.0603 H   0  0  0  0  0  0  0  0  0  0  0  0
    2.0930   -6.2620    2.4391 H   0  0  0  0  0  0  0  0  0  0  0  0
    0.7242   -5.2914    2.9132 H   0  0  0  0  0  0  0  0  0  0  0  0
  1  2  1  0
  1 39  1  0
  1 40  1  0
  1 41  1  0
  2 10  1  0
  2  3  1  0
  2  4  1  0
  3 42  1  0
  3 43  1  0
  3 44  1  0
  4  5  1  0
  4 45  1  0
  4 46  1  0
  5  6  2  0
  5  7  1  0
  7 37  1  0
  7  8  1  0
  7 47  1  1
  8  9  1  1
  8 10  1  0
  8 11  1  0
  9 48  1  0
  9 49  1  0
  9 50  1  0
 10 51  1  0
 10 52  1  0
 11 12  1  0
 11 13  1  0
 11 53  1  1
 12 54  1  0
 13 37  1  0
 13 14  1  0
 13 55  1  6
 14 15  1  0
 14 16  1  0
 14 56  1  6
 15 57  1  0
 16 35  1  0
 16 17  1  1
 16 18  1  0
 17 58  1  0
 17 59  1  0
 17 60  1  0
 18 19  2  0
 18 37  1  0
 19 20  1  0
 19 61  1  0
 20 21  2  0
 20 22  1  0
 22 35  1  0
 22 23  1  0
 22 62  1  6
 23 32  1  0
 23 24  1  6
 23 25  1  0
 24 63  1  0
 24 64  1  0
 24 65  1  0
 25 26  1  0
 25 66  1  0
 25 67  1  0
 26 27  1  0
 26 68  1  0
 26 69  1  0
 27 28  1  0
 27 29  1  0
 27 70  1  1
 28 71  1  0
 29 30  1  0
 29 31  1  0
 29 32  1  0
 30 72  1  0
 30 73  1  0
 30 74  1  0
 31 75  1  0
 31 76  1  0
 31 77  1  0
 32 33  1  0
 32 78  1  6
 33 34  1  0
 33 79  1  0
 33 80  1  0
 34 35  1  0
 34 81  1  0
 34 82  1  0
 35 36  1  6
 36 83  1  0
 36 84  1  0
 36 85  1  0
 37 38  1  6
 38 86  1  0
 38 87  1  0
 38 88  1  0
M  END
>  <i_m_ct_stereo_status>  (2) 
1

>  <s_m_source_file>  (2) 
/var/tmp/pbs.5076255.sched01/tmpn440o9cr/0yczfkg0t.sdf

>  <i_m_source_file_index>  (2) 
2

>  <i_lp_mmshare_version>  (2) 
48012

>  <i_f3d_flags>  (2) 
0

>  <s_epik_input>  (2) 
W0NIM11DKFtDSDNdKShbQ0gyXTEpW0NIMl1DKD1PKVtDQEhdKFtDQF0xMltDSDNdKVtDQEBdMyhbQ0gzXSlbQ0BASF0oW0NAQEhdMltPSF0pW0NAQEhdKFtPSF0pW0NAQF00KFtDSDNdKUMzPVtDSF1DKD1PKVtDQEBIXTVbQ0BAXTYoW0NIM10pW0NASF0oQyhbQ0gzXSkoW0NIM10pW0NASF0oW09IXSlbQ0gyXVtDSDJdNilbQ0gyXVtDSDJdW0NAXTQ1W0NIM10=

>  <s_epik_cmdline>  (2) 
J2VwaWtfcHl0aG9uJywgJy1waHQnLCAnMi4wJywgJy1waCcsICc3LjAnLCAnLXRuJywgJzgnLCAnLW1hJywgJzIwMCcsICctaW1hZScsICc8aW5maWxlLm1hZT4nLCAnLW9tYWUnLCAnPG91dGZpbGUubWFlPic=

>  <r_lp_tautomer_probability>  (2) 
1

>  <r_epik_Ionization_Penalty>  (2) 
1.89204e-06

>  <r_epik_Ionization_Penalty_Charging>  (2) 
0

>  <r_epik_Ionization_Penalty_Neutral>  (2) 
1.89204e-06

>  <r_epik_State_Penalty>  (2) 
-0

>  <r_epik_Charging_Adjusted_Penalty>  (2) 
0

>  <i_epik_Tot_Q>  (2) 
0

>  <i_epik_Tot_abs_Q>  (2) 
0

>  <s_lp_Force_Field>  (2) 
OPLS3e

>  <r_lp_Energy>  (2) 
109.925

>  <b_lp_Chiralities_Consistent>  (2) 
1

>  <s_lp_Variant>  (2) 
1:0-1

>  <s_i_glide_gridfile>  (2) 
pfpi4k_grid

>  <i_i_glide_lignum>  (2) 
2

>  <i_i_glide_rotatable_bonds>  (2) 
3

>  <r_i_docking_score>  (2) 
-2.32868

>  <r_i_glide_ligand_efficiency>  (2) 
-0.061281

>  <r_i_glide_ligand_efficiency_sa>  (2) 
-0.206025

>  <r_i_glide_ligand_efficiency_ln>  (2) 
-0.502132

>  <r_i_glide_gscore>  (2) 
-2.32868

>  <r_i_glide_lipo>  (2) 
-0.186477

>  <r_i_glide_hbond>  (2) 
0

>  <r_i_glide_metal>  (2) 
-0

>  <r_i_glide_rewards>  (2) 
-0.502994

>  <r_i_glide_evdw>  (2) 
-25.6299

>  <r_i_glide_ecoul>  (2) 
-2.38393

>  <r_i_glide_erotb>  (2) 
0

>  <r_i_glide_esite>  (2) 
-0.000121949

>  <r_i_glide_emodel>  (2) 
-35.5184

>  <r_i_glide_energy>  (2) 
-28.0139

>  <r_i_glide_einternal>  (2) 
0.378085

>  <r_i_glide_intrahb_reward>  (2) 
-0.5

>  <i_i_glide_confnum>  (2) 
1

>  <i_i_glide_posenum>  (2) 
36

>  <r_i_glide_eff_state_penalty>  (2) 
0

>  <ligand_id>  (2) 
1

>  <original_smiles>  (2) 
CC1(C)CC(=O)C2C(C)(C1)C(O)C1C(O)C3(C)C(=CC(=O)C4C5(C)CCC(O)C(C)(C)C5CCC43C)C12C

>  <smiles>  (2) 
[H]OC1([H])C2([H])C([H])(O[H])C3(C([H])([H])[H])C([H])([H])C(C([H])([H])[H])(C([H])([H])[H])C([H])([H])C(=O)C3([H])C2(C([H])([H])[H])C2=C([H])C(=O)C3([H])C4(C([H])([H])[H])C([H])([H])C([H])([H])C([H])(O[H])C(C([H])([H])[H])(C([H])([H])[H])C4([H])C([H])([H])C([H])([H])C3(C([H])([H])[H])C21C([H])([H])[H]

$$$$
1:0:2
     RDKit          3D

 88 93  0  0  1  0  0  0  0  0999 V2000
    0.2647  -10.0862    2.9125 C   0  0  0  0  0  0  0  0  0  0  0  0
    1.4237   -9.7875    3.8876 C   0  0  0  0  0  0  0  0  0  0  0  0
    1.9998  -11.1659    4.2948 C   0  0  0  0  0  0  0  0  0  0  0  0
    2.4789   -8.9724    3.1157 C   0  0  0  0  0  0  0  0  0  0  0  0
    3.3294   -8.0062    3.9788 C   0  0  0  0  0  0  0  0  0  0  0  0
    4.5241   -7.8947    3.7912 O   0  0  0  0  0  0  0  0  0  0  0  0
    2.5995   -7.1419    5.0327 C   0  0  2  0  0  0  0  0  0  0  0  0
    1.7303   -8.0553    5.9141 C   0  0  2  0  0  0  0  0  0  0  0  0
    2.5634   -8.8815    6.9355 C   0  0  0  0  0  0  0  0  0  0  0  0
    0.7882   -8.9744    5.0594 C   0  0  0  0  0  0  0  0  0  0  0  0
    0.8099   -7.0333    6.6129 C   0  0  1  0  0  0  0  0  0  0  0  0
    1.3910   -6.5658    7.7970 O   0  0  0  0  0  0  0  0  0  0  0  0
    0.5579   -5.8945    5.5728 C   0  0  1  0  0  0  0  0  0  0  0  0
    0.4678   -4.4089    6.0101 C   0  0  1  0  0  0  0  0  0  0  0  0
   -0.1293   -4.1798    7.2664 O   0  0  0  0  0  0  0  0  0  0  0  0
    1.8454   -3.7030    5.7499 C   0  0  1  0  0  0  0  0  0  0  0  0
    2.7914   -3.8612    6.9516 C   0  0  0  0  0  0  0  0  0  0  0  0
    2.4435   -4.6108    4.6720 C   0  0  0  0  0  0  0  0  0  0  0  0
    3.3514   -4.1564    3.7860 C   0  0  0  0  0  0  0  0  0  0  0  0
    3.8964   -2.7780    3.8664 C   0  0  0  0  0  0  0  0  0  0  0  0
    4.9575   -2.4994    3.3159 O   0  0  0  0  0  0  0  0  0  0  0  0
    3.1099   -1.6442    4.6125 C   0  0  2  0  0  0  0  0  0  0  0  0
    3.9771   -0.4696    5.2837 C   0  0  2  0  0  0  0  0  0  0  0  0
    4.4883    0.4076    4.1004 C   0  0  0  0  0  0  0  0  0  0  0  0
    5.2008   -1.0063    6.0813 C   0  0  0  0  0  0  0  0  0  0  0  0
    6.0098    0.0657    6.8349 C   0  0  0  0  0  0  0  0  0  0  0  0
    5.1366    0.8888    7.7812 C   0  0  1  0  0  0  0  0  0  0  0  0
    5.9420    1.8828    8.3722 O   0  0  0  0  0  0  0  0  0  0  0  0
    3.9303    1.5455    7.0668 C   0  0  0  0  0  0  0  0  0  0  0  0
    3.0275    2.2361    8.1236 C   0  0  0  0  0  0  0  0  0  0  0  0
    4.3655    2.7266    6.1591 C   0  0  0  0  0  0  0  0  0  0  0  0
    3.1336    0.4333    6.2667 C   0  0  2  0  0  0  0  0  0  0  0  0
    2.2972   -0.4684    7.1845 C   0  0  0  0  0  0  0  0  0  0  0  0
    1.2474   -1.2071    6.3751 C   0  0  0  0  0  0  0  0  0  0  0  0
    1.7734   -2.1667    5.2672 C   0  0  2  0  0  0  0  0  0  0  0  0
    0.6853   -2.0295    4.1567 C   0  0  0  0  0  0  0  0  0  0  0  0
    1.6972   -5.9428    4.5428 C   0  0  1  0  0  0  0  0  0  0  0  0
    1.1199   -6.0938    3.1236 C   0  0  0  0  0  0  0  0  0  0  0  0
    0.6042  -10.6344    2.0304 H   0  0  0  0  0  0  0  0  0  0  0  0
   -0.1941   -9.1554    2.5669 H   0  0  0  0  0  0  0  0  0  0  0  0
   -0.5317  -10.6545    3.3985 H   0  0  0  0  0  0  0  0  0  0  0  0
    2.9008  -11.0960    4.8897 H   0  0  0  0  0  0  0  0  0  0  0  0
    2.2735  -11.7410    3.4121 H   0  0  0  0  0  0  0  0  0  0  0  0
    1.2885  -11.7831    4.8385 H   0  0  0  0  0  0  0  0  0  0  0  0
    3.1539   -9.6686    2.6172 H   0  0  0  0  0  0  0  0  0  0  0  0
    2.0036   -8.4180    2.3029 H   0  0  0  0  0  0  0  0  0  0  0  0
    3.3833   -6.7407    5.6872 H   0  0  0  0  0  0  0  0  0  0  0  0
    1.9438   -9.4039    7.6600 H   0  0  0  0  0  0  0  0  0  0  0  0
    3.2355   -8.2477    7.5095 H   0  0  0  0  0  0  0  0  0  0  0  0
    3.2057   -9.6192    6.4705 H   0  0  0  0  0  0  0  0  0  0  0  0
   -0.1245   -8.4595    4.7401 H   0  0  0  0  0  0  0  0  0  0  0  0
    0.4177   -9.7248    5.7514 H   0  0  0  0  0  0  0  0  0  0  0  0
   -0.1394   -7.4855    6.9150 H   0  0  0  0  0  0  0  0  0  0  0  0
    0.6945   -6.1907    8.3273 H   0  0  0  0  0  0  0  0  0  0  0  0
   -0.3796   -6.1498    5.0906 H   0  0  0  0  0  0  0  0  0  0  0  0
   -0.2666   -4.0206    5.3141 H   0  0  0  0  0  0  0  0  0  0  0  0
    0.5626   -4.2097    7.9262 H   0  0  0  0  0  0  0  0  0  0  0  0
    2.4252   -3.3749    7.8564 H   0  0  0  0  0  0  0  0  0  0  0  0
    3.7758   -3.4630    6.7264 H   0  0  0  0  0  0  0  0  0  0  0  0
    2.9916   -4.9028    7.1871 H   0  0  0  0  0  0  0  0  0  0  0  0
    3.7140   -4.7814    2.9737 H   0  0  0  0  0  0  0  0  0  0  0  0
    2.7232   -1.0938    3.7577 H   0  0  0  0  0  0  0  0  0  0  0  0
    5.4542    0.8706    4.2903 H   0  0  0  0  0  0  0  0  0  0  0  0
    3.7900    1.2058    3.8458 H   0  0  0  0  0  0  0  0  0  0  0  0
    4.6403   -0.1288    3.1672 H   0  0  0  0  0  0  0  0  0  0  0  0
    4.8699   -1.7047    6.8387 H   0  0  0  0  0  0  0  0  0  0  0  0
    5.8828   -1.5525    5.4343 H   0  0  0  0  0  0  0  0  0  0  0  0
    6.7814   -0.4305    7.4212 H   0  0  0  0  0  0  0  0  0  0  0  0
    6.5481    0.7138    6.1479 H   0  0  0  0  0  0  0  0  0  0  0  0
    4.7583    0.2316    8.5626 H   0  0  0  0  0  0  0  0  0  0  0  0
    6.6328    1.4503    8.8603 H   0  0  0  0  0  0  0  0  0  0  0  0
    2.0637    2.5282    7.6969 H   0  0  0  0  0  0  0  0  0  0  0  0
    3.4921    3.1356    8.5366 H   0  0  0  0  0  0  0  0  0  0  0  0
    2.8490    1.5883    8.9819 H   0  0  0  0  0  0  0  0  0  0  0  0
    3.5946    2.9947    5.4309 H   0  0  0  0  0  0  0  0  0  0  0  0
    5.2831    2.5027    5.6252 H   0  0  0  0  0  0  0  0  0  0  0  0
    4.5954    3.6321    6.7265 H   0  0  0  0  0  0  0  0  0  0  0  0
    2.4064    0.9819    5.6668 H   0  0  0  0  0  0  0  0  0  0  0  0
    2.9166   -1.1692    7.7348 H   0  0  0  0  0  0  0  0  0  0  0  0
    1.7500    0.0876    7.9368 H   0  0  0  0  0  0  0  0  0  0  0  0
    0.6754   -1.7782    7.0929 H   0  0  0  0  0  0  0  0  0  0  0  0
    0.5506   -0.4725    5.9646 H   0  0  0  0  0  0  0  0  0  0  0  0
    0.6875   -1.0170    3.7476 H   0  0  0  0  0  0  0  0  0  0  0  0
   -0.3291   -2.1386    4.5409 H   0  0  0  0  0  0  0  0  0  0  0  0
    0.8318   -2.7171    3.3208 H   0  0  0  0  0  0  0  0  0  0  0  0
    0.4891   -6.9620    3.0270 H   0  0  0  0  0  0  0  0  0  0  0  0
    1.8939   -6.1547    2.3716 H   0  0  0  0  0  0  0  0  0  0  0  0
    0.5228   -5.2329    2.8857 H   0  0  0  0  0  0  0  0  0  0  0  0
  1  2  1  0
  1 39  1  0
  1 40  1  0
  1 41  1  0
  2 10  1  0
  2  3  1  0
  2  4  1  0
  3 42  1  0
  3 43  1  0
  3 44  1  0
  4  5  1  0
  4 45  1  0
  4 46  1  0
  5  6  2  0
  5  7  1  0
  7 37  1  0
  7  8  1  0
  7 47  1  1
  8  9  1  1
  8 10  1  0
  8 11  1  0
  9 48  1  0
  9 49  1  0
  9 50  1  0
 10 51  1  0
 10 52  1  0
 11 12  1  0
 11 13  1  0
 11 53  1  1
 12 54  1  0
 13 37  1  0
 13 14  1  0
 13 55  1  6
 14 15  1  0
 14 16  1  0
 14 56  1  6
 15 57  1  0
 16 35  1  0
 16 17  1  1
 16 18  1  0
 17 58  1  0
 17 59  1  0
 17 60  1  0
 18 19  2  0
 18 37  1  0
 19 20  1  0
 19 61  1  0
 20 21  2  0
 20 22  1  0
 22 35  1  0
 22 23  1  0
 22 62  1  6
 23 32  1  0
 23 24  1  6
 23 25  1  0
 24 63  1  0
 24 64  1  0
 24 65  1  0
 25 26  1  0
 25 66  1  0
 25 67  1  0
 26 27  1  0
 26 68  1  0
 26 69  1  0
 27 28  1  0
 27 29  1  0
 27 70  1  1
 28 71  1  0
 29 30  1  0
 29 31  1  0
 29 32  1  0
 30 72  1  0
 30 73  1  0
 30 74  1  0
 31 75  1  0
 31 76  1  0
 31 77  1  0
 32 33  1  0
 32 78  1  6
 33 34  1  0
 33 79  1  0
 33 80  1  0
 34 35  1  0
 34 81  1  0
 34 82  1  0
 35 36  1  6
 36 83  1  0
 36 84  1  0
 36 85  1  0
 37 38  1  6
 38 86  1  0
 38 87  1  0
 38 88  1  0
M  END
>  <i_m_ct_stereo_status>  (3) 
1

>  <s_m_source_file>  (3) 
/var/tmp/pbs.5076255.sched01/tmpn440o9cr/0yczfkg0t.sdf

>  <i_m_source_file_index>  (3) 
2

>  <i_lp_mmshare_version>  (3) 
48012

>  <i_f3d_flags>  (3) 
0

>  <s_epik_input>  (3) 
W0NIM11DKFtDSDNdKShbQ0gyXTEpW0NIMl1DKD1PKVtDQEhdKFtDQF0xMltDSDNdKVtDQEBdMyhbQ0gzXSlbQ0BASF0oW0NAQEhdMltPSF0pW0NAQEhdKFtPSF0pW0NAQF00KFtDSDNdKUMzPVtDSF1DKD1PKVtDQEBIXTVbQ0BAXTYoW0NIM10pW0NASF0oQyhbQ0gzXSkoW0NIM10pW0NASF0oW09IXSlbQ0gyXVtDSDJdNilbQ0gyXVtDSDJdW0NAXTQ1W0NIM10=

>  <s_epik_cmdline>  (3) 
J2VwaWtfcHl0aG9uJywgJy1waHQnLCAnMi4wJywgJy1waCcsICc3LjAnLCAnLXRuJywgJzgnLCAnLW1hJywgJzIwMCcsICctaW1hZScsICc8aW5maWxlLm1hZT4nLCAnLW9tYWUnLCAnPG91dGZpbGUubWFlPic=

>  <r_lp_tautomer_probability>  (3) 
1

>  <r_epik_Ionization_Penalty>  (3) 
1.89204e-06

>  <r_epik_Ionization_Penalty_Charging>  (3) 
0

>  <r_epik_Ionization_Penalty_Neutral>  (3) 
1.89204e-06

>  <r_epik_State_Penalty>  (3) 
-0

>  <r_epik_Charging_Adjusted_Penalty>  (3) 
0

>  <i_epik_Tot_Q>  (3) 
0

>  <i_epik_Tot_abs_Q>  (3) 
0

>  <s_lp_Force_Field>  (3) 
OPLS3e

>  <r_lp_Energy>  (3) 
109.925

>  <b_lp_Chiralities_Consistent>  (3) 
1

>  <s_lp_Variant>  (3) 
1:0-1

>  <s_i_glide_gridfile>  (3) 
pfpi4k_grid

>  <i_i_glide_lignum>  (3) 
2

>  <i_i_glide_rotatable_bonds>  (3) 
3

>  <r_i_docking_score>  (3) 
-1.56131

>  <r_i_glide_ligand_efficiency>  (3) 
-0.0410872

>  <r_i_glide_ligand_efficiency_sa>  (3) 
-0.138134

>  <r_i_glide_ligand_efficiency_ln>  (3) 
-0.336665

>  <r_i_glide_gscore>  (3) 
-1.56131

>  <r_i_glide_lipo>  (3) 
-0.123188

>  <r_i_glide_hbond>  (3) 
0

>  <r_i_glide_metal>  (3) 
-0

>  <r_i_glide_rewards>  (3) 
0

>  <r_i_glide_evdw>  (3) 
-25.9887

>  <r_i_glide_ecoul>  (3) 
-0.923666

>  <r_i_glide_erotb>  (3) 
0

>  <r_i_glide_esite>  (3) 
-0.000142499

>  <r_i_glide_emodel>  (3) 
-27.553

>  <r_i_glide_energy>  (3) 
-26.9123

>  <r_i_glide_einternal>  (3) 
0.664416

>  <r_i_glide_intrahb_reward>  (3) 
-0

>  <i_i_glide_confnum>  (3) 
1

>  <i_i_glide_posenum>  (3) 
8

>  <r_i_glide_eff_state_penalty>  (3) 
0

>  <ligand_id>  (3) 
1

>  <original_smiles>  (3) 
CC1(C)CC(=O)C2C(C)(C1)C(O)C1C(O)C3(C)C(=CC(=O)C4C5(C)CCC(O)C(C)(C)C5CCC43C)C12C

>  <smiles>  (3) 
[H]OC1([H])C2([H])C([H])(O[H])C3(C([H])([H])[H])C([H])([H])C(C([H])([H])[H])(C([H])([H])[H])C([H])([H])C(=O)C3([H])C2(C([H])([H])[H])C2=C([H])C(=O)C3([H])C4(C([H])([H])[H])C([H])([H])C([H])([H])C([H])(O[H])C(C([H])([H])[H])(C([H])([H])[H])C4([H])C([H])([H])C([H])([H])C3(C([H])([H])[H])C21C([H])([H])[H]

$$$$
2:0:0
     RDKit          3D

 27 29  0  0  1  0  0  0  0  0999 V2000
    1.9512   -0.9257    2.1782 C   0  0  0  0  0  0  0  0  0  0  0  0
    3.1085   -0.8818    1.2873 N   0  0  0  0  0  0  0  0  0  0  0  0
    3.8128    0.3719    1.5375 C   0  0  0  0  0  0  0  0  0  0  0  0
    3.9922   -2.0458    1.4530 C   0  0  2  0  0  0  0  0  0  0  0  0
    5.2459   -2.0218    0.6872 N   0  0  0  0  0  0  0  0  0  0  0  0
    5.4136   -2.0755   -0.6442 C   0  0  0  0  0  0  0  0  0  0  0  0
    6.5133   -1.8543   -1.1461 O   0  0  0  0  0  0  0  0  0  0  0  0
    4.2349   -2.3904   -1.4899 C   0  0  0  0  0  0  0  0  0  0  0  0
    4.2049   -1.7742   -3.1265 S   0  0  0  0  0  0  0  0  0  0  0  0
    2.6733   -2.5594   -3.4549 C   0  0  0  0  0  0  0  0  0  0  0  0
    2.2265   -3.2676   -2.3723 C   0  0  0  0  0  0  0  0  0  0  0  0
    3.1220   -3.1626   -1.2721 C   0  0  0  0  0  0  0  0  0  0  0  0
    2.9266   -3.7787   -0.0243 N   0  0  0  0  0  0  0  0  0  0  0  0
    2.2609   -4.9509    0.1218 N   0  0  0  0  0  0  0  0  0  0  0  0
    2.2485   -5.2083    1.3988 N   0  0  0  0  0  0  0  0  0  0  0  0
    2.8873   -4.2169    2.1223 N   0  0  0  0  0  0  0  0  0  0  0  0
    3.2919   -3.3584    1.1940 C   0  0  0  0  0  0  0  0  0  0  0  0
    1.3196   -1.7883    1.9662 H   0  0  0  0  0  0  0  0  0  0  0  0
    1.3294   -0.0409    2.0346 H   0  0  0  0  0  0  0  0  0  0  0  0
    2.2480   -0.9647    3.2280 H   0  0  0  0  0  0  0  0  0  0  0  0
    4.6364    0.5105    0.8369 H   0  0  0  0  0  0  0  0  0  0  0  0
    4.2113    0.4153    2.5525 H   0  0  0  0  0  0  0  0  0  0  0  0
    3.1411    1.2206    1.4063 H   0  0  0  0  0  0  0  0  0  0  0  0
    4.3076   -2.0683    2.4974 H   0  0  0  0  0  0  0  0  0  0  0  0
    6.0774   -1.8004    1.2177 H   0  0  0  0  0  0  0  0  0  0  0  0
    2.1931   -2.4396   -4.4152 H   0  0  0  0  0  0  0  0  0  0  0  0
    1.3113   -3.8429   -2.3225 H   0  0  0  0  0  0  0  0  0  0  0  0
  1  2  1  0
  1 18  1  0
  1 19  1  0
  1 20  1  0
  2  3  1  0
  2  4  1  0
  3 21  1  0
  3 22  1  0
  3 23  1  0
  4 17  1  0
  4  5  1  0
  4 24  1  1
  5  6  1  0
  5 25  1  0
  6  7  2  0
  6  8  1  0
  8 12  2  0
  8  9  1  0
  9 10  1  0
 10 11  2  0
 10 26  1  0
 11 12  1  0
 11 27  1  0
 12 13  1  0
 13 17  1  0
 13 14  1  0
 14 15  2  0
 15 16  1  0
 16 17  2  0
M  END
>  <i_m_ct_stereo_status>  (4) 
1

>  <s_m_source_file>  (4) 
/var/tmp/pbs.5076255.sched01/tmpn440o9cr/0yczfkg0t.sdf

>  <i_m_source_file_index>  (4) 
3

>  <i_lp_mmshare_version>  (4) 
48012

>  <i_f3d_flags>  (4) 
0

>  <s_epik_input>  (4) 
Tz1DMVtOSF1bQ0BASF0oTihbQ0gzXSlbQ0gzXSljKG5ubjIpbjJjKGMxMylbY0hdW2NIXXMz

>  <s_epik_cmdline>  (4) 
J2VwaWtfcHl0aG9uJywgJy1waHQnLCAnMi4wJywgJy1waCcsICc3LjAnLCAnLXRuJywgJzgnLCAnLW1hJywgJzIwMCcsICctaW1hZScsICc8aW5maWxlLm1hZT4nLCAnLW9tYWUnLCAnPG91dGZpbGUubWFlPic=

>  <r_lp_tautomer_probability>  (4) 
1

>  <r_epik_Ionization_Penalty>  (4) 
0.00107698

>  <r_epik_Ionization_Penalty_Charging>  (4) 
0

>  <r_epik_Ionization_Penalty_Neutral>  (4) 
0.00107698

>  <r_epik_State_Penalty>  (4) 
-0

>  <r_epik_Charging_Adjusted_Penalty>  (4) 
0

>  <i_epik_Tot_Q>  (4) 
0

>  <i_epik_Tot_abs_Q>  (4) 
0

>  <s_epik_Chemistry_Notes>  (4) 
This compound contains an acetal/aminal-like group ( X-CH(R)-Y where X, Y are N, S, or O) that may be acid/base labile, releasing an aldehyde.

>  <s_lp_Force_Field>  (4) 
OPLS3e

>  <r_lp_Energy>  (4) 
17.2256

>  <b_lp_Chiralities_Consistent>  (4) 
1

>  <s_lp_Variant>  (4) 
2:0-1

>  <s_i_glide_gridfile>  (4) 
pfpi4k_grid

>  <i_i_glide_lignum>  (4) 
3

>  <i_i_glide_rotatable_bonds>  (4) 
1

>  <r_i_docking_score>  (4) 
-4.47921

>  <r_i_glide_ligand_efficiency>  (4) 
-0.263483

>  <r_i_glide_ligand_efficiency_sa>  (4) 
-0.677489

>  <r_i_glide_ligand_efficiency_ln>  (4) 
-1.16853

>  <r_i_glide_gscore>  (4) 
-4.47921

>  <r_i_glide_lipo>  (4) 
-0.562268

>  <r_i_glide_hbond>  (4) 
-0.16

>  <r_i_glide_metal>  (4) 
-0

>  <r_i_glide_rewards>  (4) 
-1.70263

>  <r_i_glide_evdw>  (4) 
-23.6663

>  <r_i_glide_ecoul>  (4) 
-4.79175

>  <r_i_glide_erotb>  (4) 
0

>  <r_i_glide_esite>  (4) 
-0.152237

>  <r_i_glide_emodel>  (4) 
-36.8133

>  <r_i_glide_energy>  (4) 
-28.4581

>  <r_i_glide_einternal>  (4) 
0.0302482

>  <r_i_glide_intrahb_reward>  (4) 
-0

>  <i_i_glide_confnum>  (4) 
1

>  <i_i_glide_posenum>  (4) 
21

>  <r_i_glide_eff_state_penalty>  (4) 
0

>  <ligand_id>  (4) 
2

>  <original_smiles>  (4) 
CN(C)C1NC(=O)c2sccc2-n2nnnc21

>  <smiles>  (4) 
[H]c1sc2c(c1[H])-n1nnnc1C([H])(N(C([H])([H])[H])C([H])([H])[H])N([H])C2=O

$$$$
2:0:1
     RDKit          3D

 27 29  0  0  1  0  0  0  0  0999 V2000
    3.2802   -1.2070    2.7716 C   0  0  0  0  0  0  0  0  0  0  0  0
    3.9570   -1.3118    1.4797 N   0  0  0  0  0  0  0  0  0  0  0  0
    4.7780   -0.1189    1.3166 C   0  0  0  0  0  0  0  0  0  0  0  0
    4.7475   -2.5491    1.3854 C   0  0  2  0  0  0  0  0  0  0  0  0
    5.7547   -2.6283    0.3188 N   0  0  0  0  0  0  0  0  0  0  0  0
    5.5602   -2.5916   -1.0061 C   0  0  0  0  0  0  0  0  0  0  0  0
    6.5091   -2.3670   -1.7624 O   0  0  0  0  0  0  0  0  0  0  0  0
    4.1820   -2.7806   -1.5247 C   0  0  0  0  0  0  0  0  0  0  0  0
    3.7882   -2.0985   -3.0901 S   0  0  0  0  0  0  0  0  0  0  0  0
    2.1735   -2.7574   -3.0450 C   0  0  0  0  0  0  0  0  0  0  0  0
    1.9423   -3.4573   -1.8876 C   0  0  0  0  0  0  0  0  0  0  0  0
    3.0905   -3.4503   -1.0378 C   0  0  0  0  0  0  0  0  0  0  0  0
    3.1577   -4.0899    0.2098 N   0  0  0  0  0  0  0  0  0  0  0  0
    2.4536   -5.2124    0.5047 N   0  0  0  0  0  0  0  0  0  0  0  0
    2.7697   -5.5283    1.7259 N   0  0  0  0  0  0  0  0  0  0  0  0
    3.6723   -4.6387    2.2686 N   0  0  0  0  0  0  0  0  0  0  0  0
    3.8714   -3.7650    1.2931 C   0  0  0  0  0  0  0  0  0  0  0  0
    2.5725   -2.0216    2.9282 H   0  0  0  0  0  0  0  0  0  0  0  0
    2.7195   -0.2744    2.8284 H   0  0  0  0  0  0  0  0  0  0  0  0
    3.9900   -1.2071    3.6005 H   0  0  0  0  0  0  0  0  0  0  0  0
    5.2316   -0.0867    0.3270 H   0  0  0  0  0  0  0  0  0  0  0  0
    5.5737   -0.0741    2.0634 H   0  0  0  0  0  0  0  0  0  0  0  0
    4.1621    0.7775    1.3971 H   0  0  0  0  0  0  0  0  0  0  0  0
    5.3281   -2.6451    2.3004 H   0  0  0  0  0  0  0  0  0  0  0  0
    6.7086   -2.4984    0.6226 H   0  0  0  0  0  0  0  0  0  0  0  0
    1.4716   -2.5668   -3.8435 H   0  0  0  0  0  0  0  0  0  0  0  0
    1.0170   -3.9573   -1.6260 H   0  0  0  0  0  0  0  0  0  0  0  0
  1  2  1  0
  1 18  1  0
  1 19  1  0
  1 20  1  0
  2  3  1  0
  2  4  1  0
  3 21  1  0
  3 22  1  0
  3 23  1  0
  4 17  1  0
  4  5  1  0
  4 24  1  1
  5  6  1  0
  5 25  1  0
  6  7  2  0
  6  8  1  0
  8 12  2  0
  8  9  1  0
  9 10  1  0
 10 11  2  0
 10 26  1  0
 11 12  1  0
 11 27  1  0
 12 13  1  0
 13 17  1  0
 13 14  1  0
 14 15  2  0
 15 16  1  0
 16 17  2  0
M  END
>  <i_m_ct_stereo_status>  (5) 
1

>  <s_m_source_file>  (5) 
/var/tmp/pbs.5076255.sched01/tmpn440o9cr/0yczfkg0t.sdf

>  <i_m_source_file_index>  (5) 
3

>  <i_lp_mmshare_version>  (5) 
48012

>  <i_f3d_flags>  (5) 
0

>  <s_epik_input>  (5) 
Tz1DMVtOSF1bQ0BASF0oTihbQ0gzXSlbQ0gzXSljKG5ubjIpbjJjKGMxMylbY0hdW2NIXXMz

>  <s_epik_cmdline>  (5) 
J2VwaWtfcHl0aG9uJywgJy1waHQnLCAnMi4wJywgJy1waCcsICc3LjAnLCAnLXRuJywgJzgnLCAnLW1hJywgJzIwMCcsICctaW1hZScsICc8aW5maWxlLm1hZT4nLCAnLW9tYWUnLCAnPG91dGZpbGUubWFlPic=

>  <r_lp_tautomer_probability>  (5) 
1

>  <r_epik_Ionization_Penalty>  (5) 
0.00107698

>  <r_epik_Ionization_Penalty_Charging>  (5) 
0

>  <r_epik_Ionization_Penalty_Neutral>  (5) 
0.00107698

>  <r_epik_State_Penalty>  (5) 
-0

>  <r_epik_Charging_Adjusted_Penalty>  (5) 
0

>  <i_epik_Tot_Q>  (5) 
0

>  <i_epik_Tot_abs_Q>  (5) 
0

>  <s_epik_Chemistry_Notes>  (5) 
This compound contains an acetal/aminal-like group ( X-CH(R)-Y where X, Y are N, S, or O) that may be acid/base labile, releasing an aldehyde.

>  <s_lp_Force_Field>  (5) 
OPLS3e

>  <r_lp_Energy>  (5) 
17.2256

>  <b_lp_Chiralities_Consistent>  (5) 
1

>  <s_lp_Variant>  (5) 
2:0-1

>  <s_i_glide_gridfile>  (5) 
pfpi4k_grid

>  <i_i_glide_lignum>  (5) 
3

>  <i_i_glide_rotatable_bonds>  (5) 
1

>  <r_i_docking_score>  (5) 
-3.93228

>  <r_i_glide_ligand_efficiency>  (5) 
-0.231311

>  <r_i_glide_ligand_efficiency_sa>  (5) 
-0.594765

>  <r_i_glide_ligand_efficiency_ln>  (5) 
-1.02584

>  <r_i_glide_gscore>  (5) 
-3.93228

>  <r_i_glide_lipo>  (5) 
-0.495861

>  <r_i_glide_hbond>  (5) 
-0.112406

>  <r_i_glide_metal>  (5) 
-0

>  <r_i_glide_rewards>  (5) 
-1.75059

>  <r_i_glide_evdw>  (5) 
-23.3241

>  <r_i_glide_ecoul>  (5) 
-2.15332

>  <r_i_glide_erotb>  (5) 
0

>  <r_i_glide_esite>  (5) 
-0.0842175

>  <r_i_glide_emodel>  (5) 
-32.4192

>  <r_i_glide_energy>  (5) 
-25.4774

>  <r_i_glide_einternal>  (5) 
0.583292

>  <r_i_glide_intrahb_reward>  (5) 
-0

>  <i_i_glide_confnum>  (5) 
1

>  <i_i_glide_posenum>  (5) 
17

>  <r_i_glide_eff_state_penalty>  (5) 
0

>  <ligand_id>  (5) 
2

>  <original_smiles>  (5) 
CN(C)C1NC(=O)c2sccc2-n2nnnc21

>  <smiles>  (5) 
[H]c1sc2c(c1[H])-n1nnnc1C([H])(N(C([H])([H])[H])C([H])([H])[H])N([H])C2=O

$$$$
2:0:2
     RDKit          3D

 27 29  0  0  1  0  0  0  0  0999 V2000
    1.4233   -1.2532    2.5436 C   0  0  0  0  0  0  0  0  0  0  0  0
    2.7373   -1.0536    1.9381 N   0  0  0  0  0  0  0  0  0  0  0  0
    3.2712    0.2072    2.4441 C   0  0  0  0  0  0  0  0  0  0  0  0
    3.6494   -2.1801    2.1933 C   0  0  2  0  0  0  0  0  0  0  0  0
    5.0503   -1.9944    1.7870 N   0  0  0  0  0  0  0  0  0  0  0  0
    5.5414   -1.8399    0.5432 C   0  0  0  0  0  0  0  0  0  0  0  0
    6.6998   -1.4712    0.3564 O   0  0  0  0  0  0  0  0  0  0  0  0
    4.6403   -2.1220   -0.6009 C   0  0  0  0  0  0  0  0  0  0  0  0
    4.9584   -1.2884   -2.0981 S   0  0  0  0  0  0  0  0  0  0  0  0
    3.6514   -2.1126   -2.9141 C   0  0  0  0  0  0  0  0  0  0  0  0
    3.0152   -2.9950   -2.0824 C   0  0  0  0  0  0  0  0  0  0  0  0
    3.5879   -2.9800   -0.7770 C   0  0  0  0  0  0  0  0  0  0  0  0
    3.1321   -3.7574    0.3001 N   0  0  0  0  0  0  0  0  0  0  0  0
    2.5526   -4.9724    0.1387 N   0  0  0  0  0  0  0  0  0  0  0  0
    2.2493   -5.3994    1.3285 N   0  0  0  0  0  0  0  0  0  0  0  0
    2.6026   -4.4784    2.2974 N   0  0  0  0  0  0  0  0  0  0  0  0
    3.1440   -3.4798    1.6104 C   0  0  0  0  0  0  0  0  0  0  0  0
    0.9290   -2.1289    2.1273 H   0  0  0  0  0  0  0  0  0  0  0  0
    0.7766   -0.3977    2.3428 H   0  0  0  0  0  0  0  0  0  0  0  0
    1.4889   -1.3804    3.6252 H   0  0  0  0  0  0  0  0  0  0  0  0
    4.2123    0.4600    1.9561 H   0  0  0  0  0  0  0  0  0  0  0  0
    3.4417    0.1676    3.5211 H   0  0  0  0  0  0  0  0  0  0  0  0
    2.5814    1.0268    2.2382 H   0  0  0  0  0  0  0  0  0  0  0  0
    3.6931   -2.3218    3.2744 H   0  0  0  0  0  0  0  0  0  0  0  0
    5.6977   -1.7913    2.5351 H   0  0  0  0  0  0  0  0  0  0  0  0
    3.4289   -1.8776   -3.9432 H   0  0  0  0  0  0  0  0  0  0  0  0
    2.1701   -3.6175   -2.3475 H   0  0  0  0  0  0  0  0  0  0  0  0
  1  2  1  0
  1 18  1  0
  1 19  1  0
  1 20  1  0
  2  3  1  0
  2  4  1  0
  3 21  1  0
  3 22  1  0
  3 23  1  0
  4 17  1  0
  4  5  1  0
  4 24  1  1
  5  6  1  0
  5 25  1  0
  6  7  2  0
  6  8  1  0
  8 12  2  0
  8  9  1  0
  9 10  1  0
 10 11  2  0
 10 26  1  0
 11 12  1  0
 11 27  1  0
 12 13  1  0
 13 17  1  0
 13 14  1  0
 14 15  2  0
 15 16  1  0
 16 17  2  0
M  END
>  <i_m_ct_stereo_status>  (6) 
1

>  <s_m_source_file>  (6) 
/var/tmp/pbs.5076255.sched01/tmpn440o9cr/0yczfkg0t.sdf

>  <i_m_source_file_index>  (6) 
3

>  <i_lp_mmshare_version>  (6) 
48012

>  <i_f3d_flags>  (6) 
0

>  <s_epik_input>  (6) 
Tz1DMVtOSF1bQ0BASF0oTihbQ0gzXSlbQ0gzXSljKG5ubjIpbjJjKGMxMylbY0hdW2NIXXMz

>  <s_epik_cmdline>  (6) 
J2VwaWtfcHl0aG9uJywgJy1waHQnLCAnMi4wJywgJy1waCcsICc3LjAnLCAnLXRuJywgJzgnLCAnLW1hJywgJzIwMCcsICctaW1hZScsICc8aW5maWxlLm1hZT4nLCAnLW9tYWUnLCAnPG91dGZpbGUubWFlPic=

>  <r_lp_tautomer_probability>  (6) 
1

>  <r_epik_Ionization_Penalty>  (6) 
0.00107698

>  <r_epik_Ionization_Penalty_Charging>  (6) 
0

>  <r_epik_Ionization_Penalty_Neutral>  (6) 
0.00107698

>  <r_epik_State_Penalty>  (6) 
-0

>  <r_epik_Charging_Adjusted_Penalty>  (6) 
0

>  <i_epik_Tot_Q>  (6) 
0

>  <i_epik_Tot_abs_Q>  (6) 
0

>  <s_epik_Chemistry_Notes>  (6) 
This compound contains an acetal/aminal-like group ( X-CH(R)-Y where X, Y are N, S, or O) that may be acid/base labile, releasing an aldehyde.

>  <s_lp_Force_Field>  (6) 
OPLS3e

>  <r_lp_Energy>  (6) 
17.2256

>  <b_lp_Chiralities_Consistent>  (6) 
1

>  <s_lp_Variant>  (6) 
2:0-1

>  <s_i_glide_gridfile>  (6) 
pfpi4k_grid

>  <i_i_glide_lignum>  (6) 
3

>  <i_i_glide_rotatable_bonds>  (6) 
1

>  <r_i_docking_score>  (6) 
-3.33769

>  <r_i_glide_ligand_efficiency>  (6) 
-0.196335

>  <r_i_glide_ligand_efficiency_sa>  (6) 
-0.504832

>  <r_i_glide_ligand_efficiency_ln>  (6) 
-0.870729

>  <r_i_glide_gscore>  (6) 
-3.33769

>  <r_i_glide_lipo>  (6) 
-0.0732999

>  <r_i_glide_hbond>  (6) 
0

>  <r_i_glide_metal>  (6) 
-0

>  <r_i_glide_rewards>  (6) 
-1.79941

>  <r_i_glide_evdw>  (6) 
-22.6717

>  <r_i_glide_ecoul>  (6) 
-1.47307

>  <r_i_glide_erotb>  (6) 
0

>  <r_i_glide_esite>  (6) 
-0.110429

>  <r_i_glide_emodel>  (6) 
-30.3632

>  <r_i_glide_energy>  (6) 
-24.1448

>  <r_i_glide_einternal>  (6) 
0.0065119

>  <r_i_glide_intrahb_reward>  (6) 
-0

>  <i_i_glide_confnum>  (6) 
1

>  <i_i_glide_posenum>  (6) 
30

>  <r_i_glide_eff_state_penalty>  (6) 
0

>  <ligand_id>  (6) 
2

>  <original_smiles>  (6) 
CN(C)C1NC(=O)c2sccc2-n2nnnc21

>  <smiles>  (6) 
[H]c1sc2c(c1[H])-n1nnnc1C([H])(N(C([H])([H])[H])C([H])([H])[H])N([H])C2=O

$$$$
4:0:0
     RDKit          3D

 56 62  0  0  1  0  0  0  0  0999 V2000
    3.2136   -1.7663    4.0234 C   0  0  0  0  0  0  0  0  0  0  0  0
    3.9531   -1.9120    2.9044 C   0  0  0  0  0  0  0  0  0  0  0  0
    5.3435   -2.5155    2.9283 C   0  0  1  0  0  0  0  0  0  0  0  0
    5.3678   -3.9486    3.5221 C   0  0  0  0  0  0  0  0  0  0  0  0
    4.1482   -4.7613    3.2417 C   0  0  2  0  0  0  0  0  0  0  0  0
    4.0700   -5.7788    2.2266 O   0  0  0  0  0  0  0  0  0  0  0  0
    3.3401   -4.5724    1.9708 C   0  0  1  0  0  0  0  0  0  0  0  0
    1.8757   -4.5677    2.3386 C   0  0  0  0  0  0  0  0  0  0  0  0
    3.6530   -3.9649    0.5581 C   0  0  2  0  0  0  0  0  0  0  0  0
    2.5523   -4.6345   -0.3176 C   0  0  0  0  0  0  0  0  0  0  0  0
    5.0107   -4.3017   -0.2143 C   0  0  2  0  0  0  0  0  0  0  0  0
    6.3061   -4.5932    0.5897 C   0  0  0  0  0  0  0  0  0  0  0  0
    7.0617   -3.4016    1.1850 C   0  0  0  0  0  0  0  0  0  0  0  0
    6.2103   -2.2024    1.6485 C   0  0  1  0  0  0  0  0  0  0  0  0
    5.5920   -1.2873    0.5188 C   0  0  2  0  0  0  0  0  0  0  0  0
    4.6097   -0.3542    1.2175 C   0  0  0  0  0  0  0  0  0  0  0  0
    3.5217   -1.3716    1.5664 C   0  0  1  0  0  0  0  0  0  0  0  0
    3.5080   -2.3972    0.3684 C   0  0  1  0  0  0  0  0  0  0  0  0
    4.6919   -1.9711   -0.5458 C   0  0  1  0  0  0  0  0  0  0  0  0
    4.3237   -0.9783   -1.6644 C   0  0  0  0  0  0  0  0  0  0  0  0
    3.2940   -1.4158   -2.5257 O   0  0  0  0  0  0  0  0  0  0  0  0
    3.3137   -2.6597   -3.0420 C   0  0  0  0  0  0  0  0  0  0  0  0
    2.4813   -3.1037   -3.8010 O   0  0  0  0  0  0  0  0  0  0  0  0
    4.5367   -3.4865   -2.6586 C   0  0  0  0  0  0  0  0  0  0  0  0
    5.2551   -3.1871   -1.2981 C   0  0  2  0  0  0  0  0  0  0  0  0
    6.7233   -2.9330   -1.7767 C   0  0  0  0  0  0  0  0  0  0  0  0
    2.2498   -1.2947    3.9911 H   0  0  0  0  0  0  0  0  0  0  0  0
    3.5806   -2.1145    4.9737 H   0  0  0  0  0  0  0  0  0  0  0  0
    5.8020   -1.9081    3.7034 H   0  0  0  0  0  0  0  0  0  0  0  0
    6.2324   -4.5755    3.3487 H   0  0  0  0  0  0  0  0  0  0  0  0
    5.3700   -3.8217    4.6075 H   0  0  0  0  0  0  0  0  0  0  0  0
    3.6305   -5.0616    4.1423 H   0  0  0  0  0  0  0  0  0  0  0  0
    1.4541   -3.5853    2.1134 H   0  0  0  0  0  0  0  0  0  0  0  0
    1.6925   -4.7462    3.3914 H   0  0  0  0  0  0  0  0  0  0  0  0
    1.3314   -5.3446    1.8025 H   0  0  0  0  0  0  0  0  0  0  0  0
    2.6990   -4.4565   -1.3476 H   0  0  0  0  0  0  0  0  0  0  0  0
    1.5566   -4.2329   -0.1710 H   0  0  0  0  0  0  0  0  0  0  0  0
    2.5176   -5.7126   -0.1516 H   0  0  0  0  0  0  0  0  0  0  0  0
    4.8661   -5.2501   -0.7373 H   0  0  0  0  0  0  0  0  0  0  0  0
    6.1383   -5.3467    1.3474 H   0  0  0  0  0  0  0  0  0  0  0  0
    7.0244   -5.1024   -0.0520 H   0  0  0  0  0  0  0  0  0  0  0  0
    7.6246   -3.8360    1.9970 H   0  0  0  0  0  0  0  0  0  0  0  0
    7.8944   -3.0754    0.5629 H   0  0  0  0  0  0  0  0  0  0  0  0
    6.9581   -1.5033    2.0426 H   0  0  0  0  0  0  0  0  0  0  0  0
    6.3795   -0.6935    0.0497 H   0  0  0  0  0  0  0  0  0  0  0  0
    5.0481    0.1312    2.0923 H   0  0  0  0  0  0  0  0  0  0  0  0
    4.2304    0.4596    0.6068 H   0  0  0  0  0  0  0  0  0  0  0  0
    2.5555   -0.8778    1.6778 H   0  0  0  0  0  0  0  0  0  0  0  0
    2.5872   -2.2014   -0.1697 H   0  0  0  0  0  0  0  0  0  0  0  0
    3.9365   -0.0907   -1.2346 H   0  0  0  0  0  0  0  0  0  0  0  0
    5.1816   -0.6631   -2.2552 H   0  0  0  0  0  0  0  0  0  0  0  0
    4.2728   -4.5341   -2.7160 H   0  0  0  0  0  0  0  0  0  0  0  0
    5.2024   -3.3612   -3.5043 H   0  0  0  0  0  0  0  0  0  0  0  0
    6.7378   -2.3736   -2.7026 H   0  0  0  0  0  0  0  0  0  0  0  0
    7.2668   -3.8544   -1.9736 H   0  0  0  0  0  0  0  0  0  0  0  0
    7.3257   -2.2897   -1.1522 H   0  0  0  0  0  0  0  0  0  0  0  0
  1  2  2  0
  1 27  1  0
  1 28  1  0
  2 17  1  0
  2  3  1  0
  3 14  1  0
  3  4  1  0
  3 29  1  1
  4  5  1  0
  4 30  1  0
  4 31  1  0
  5  7  1  0
  5  6  1  0
  5 32  1  1
  6  7  1  0
  7  8  1  1
  7  9  1  0
  8 33  1  0
  8 34  1  0
  8 35  1  0
  9 18  1  0
  9 10  1  6
  9 11  1  0
 10 36  1  0
 10 37  1  0
 10 38  1  0
 11 25  1  0
 11 12  1  0
 11 39  1  6
 12 13  1  0
 12 40  1  0
 12 41  1  0
 13 14  1  0
 13 42  1  0
 13 43  1  0
 14 15  1  0
 14 44  1  1
 15 19  1  0
 15 16  1  0
 15 45  1  6
 16 17  1  0
 16 46  1  0
 16 47  1  0
 17 18  1  0
 17 48  1  1
 18 19  1  0
 18 49  1  6
 19 25  1  0
 19 20  1  6
 20 21  1  0
 20 50  1  0
 20 51  1  0
 21 22  1  0
 22 23  2  0
 22 24  1  0
 24 25  1  0
 24 52  1  0
 24 53  1  0
 25 26  1  6
 26 54  1  0
 26 55  1  0
 26 56  1  0
M  END
>  <i_m_ct_stereo_status>  (7) 
1

>  <s_m_source_file>  (7) 
/var/tmp/pbs.5076255.sched01/tmpn440o9cr/0yczfkg0t.sdf

>  <i_m_source_file_index>  (7) 
5

>  <i_lp_mmshare_version>  (7) 
48012

>  <i_f3d_flags>  (7) 
0

>  <s_epik_input>  (7) 
W0NAXTEyM1tDQEBIXTRbQ0BIXTVbQ0BIXTZDKD1bQ0gyXSlbQ0BASF0oW0NIMl00KVtDQEBIXTFbQ0BdKFtDSDNdKShbQ0BdNyhbQ0gzXSlbQ0BASF0oTzcpW0NIMl02KVtDQEhdKFtDSDJdW0NIMl01KVtDQEBdMyhbQ0gzXSlbQ0gyXUMoPU8pT1tDSDJdMg==

>  <s_epik_cmdline>  (7) 
J2VwaWtfcHl0aG9uJywgJy1waHQnLCAnMi4wJywgJy1waCcsICc3LjAnLCAnLXRuJywgJzgnLCAnLW1hJywgJzIwMCcsICctaW1hZScsICc8aW5maWxlLm1hZT4nLCAnLW9tYWUnLCAnPG91dGZpbGUubWFlPic=

>  <r_lp_tautomer_probability>  (7) 
1

>  <r_epik_Ionization_Penalty>  (7) 
1.55344e-09

>  <r_epik_Ionization_Penalty_Charging>  (7) 
0

>  <r_epik_Ionization_Penalty_Neutral>  (7) 
1.55344e-09

>  <r_epik_State_Penalty>  (7) 
-0

>  <r_epik_Charging_Adjusted_Penalty>  (7) 
0

>  <i_epik_Tot_Q>  (7) 
0

>  <i_epik_Tot_abs_Q>  (7) 
0

>  <s_epik_Chemistry_Notes>  (7) 
This compound has an ester and may undergo hydrolysis at high or low pH.

>  <s_lp_Force_Field>  (7) 
OPLS3e

>  <r_lp_Energy>  (7) 
134.396

>  <b_lp_Chiralities_Consistent>  (7) 
1

>  <s_lp_Variant>  (7) 
4:0-1

>  <s_i_glide_gridfile>  (7) 
pfpi4k_grid

>  <i_i_glide_lignum>  (7) 
5

>  <i_i_glide_rotatable_bonds>  (7) 
0

>  <r_i_docking_score>  (7) 
-2.61622

>  <r_i_glide_ligand_efficiency>  (7) 
-0.100624

>  <r_i_glide_ligand_efficiency_sa>  (7) 
-0.298097

>  <r_i_glide_ligand_efficiency_ln>  (7) 
-0.61441

>  <r_i_glide_gscore>  (7) 
-2.61622

>  <r_i_glide_lipo>  (7) 
-0.691338

>  <r_i_glide_hbond>  (7) 
0

>  <r_i_glide_metal>  (7) 
-0

>  <r_i_glide_rewards>  (7) 
-1.05136

>  <r_i_glide_evdw>  (7) 
-20.2015

>  <r_i_glide_ecoul>  (7) 
0.910362

>  <r_i_glide_erotb>  (7) 
0

>  <r_i_glide_esite>  (7) 
0

>  <r_i_glide_emodel>  (7) 
-20.0584

>  <r_i_glide_energy>  (7) 
-19.2911

>  <r_i_glide_einternal>  (7) 
0

>  <r_i_glide_intrahb_reward>  (7) 
-0

>  <i_i_glide_confnum>  (7) 
1

>  <i_i_glide_posenum>  (7) 
6

>  <r_i_glide_eff_state_penalty>  (7) 
0

>  <ligand_id>  (7) 
4

>  <original_smiles>  (7) 
C=C1C2CC3OC3(C)C3(C)C4CCC2C2CC1C3C21COC(=O)CC41C

>  <smiles>  (7) 
[H]C([H])=C1C2([H])C([H])([H])C3([H])OC3(C([H])([H])[H])C3(C([H])([H])[H])C4([H])C([H])([H])C([H])([H])C2([H])C2([H])C([H])([H])C1([H])C3([H])C21C([H])([H])OC(=O)C([H])([H])C41C([H])([H])[H]

$$$$
4:0:1
     RDKit          3D

 56 62  0  0  1  0  0  0  0  0999 V2000
    7.2893   -2.7911   -0.2688 C   0  0  0  0  0  0  0  0  0  0  0  0
    6.4305   -3.1449    0.6998 C   0  0  0  0  0  0  0  0  0  0  0  0
    6.0137   -2.1865    1.8099 C   0  0  1  0  0  0  0  0  0  0  0  0
    5.4046   -0.8756    1.2886 C   0  0  0  0  0  0  0  0  0  0  0  0
    4.6249   -1.0600    0.0263 C   0  0  2  0  0  0  0  0  0  0  0  0
    3.2089   -1.1186    0.0270 O   0  0  0  0  0  0  0  0  0  0  0  0
    3.8672   -2.3451   -0.2916 C   0  0  1  0  0  0  0  0  0  0  0  0
    4.0507   -2.6999   -1.7779 C   0  0  0  0  0  0  0  0  0  0  0  0
    3.3338   -3.5327    0.5987 C   0  0  2  0  0  0  0  0  0  0  0  0
    2.2169   -4.1131   -0.3228 C   0  0  0  0  0  0  0  0  0  0  0  0
    2.6006   -3.2719    1.9991 C   0  0  2  0  0  0  0  0  0  0  0  0
    2.9503   -2.0353    2.8776 C   0  0  0  0  0  0  0  0  0  0  0  0
    4.2389   -2.0923    3.7088 C   0  0  0  0  0  0  0  0  0  0  0  0
    5.3888   -2.8952    3.0769 C   0  0  1  0  0  0  0  0  0  0  0  0
    5.2730   -4.4830    3.0684 C   0  0  2  0  0  0  0  0  0  0  0  0
    6.3983   -5.0295    2.1863 C   0  0  0  0  0  0  0  0  0  0  0  0
    5.8904   -4.5519    0.8270 C   0  0  1  0  0  0  0  0  0  0  0  0
    4.3315   -4.7155    0.9025 C   0  0  1  0  0  0  0  0  0  0  0  0
    4.0449   -5.1397    2.3745 C   0  0  1  0  0  0  0  0  0  0  0  0
    4.0141   -6.6808    2.5825 C   0  0  0  0  0  0  0  0  0  0  0  0
    3.0432   -7.3192    1.7665 O   0  0  0  0  0  0  0  0  0  0  0  0
    1.7885   -6.8367    1.6679 C   0  0  0  0  0  0  0  0  0  0  0  0
    0.9130   -7.3092    0.9681 O   0  0  0  0  0  0  0  0  0  0  0  0
    1.4842   -5.5970    2.4851 C   0  0  0  0  0  0  0  0  0  0  0  0
    2.6544   -4.6131    2.8200 C   0  0  2  0  0  0  0  0  0  0  0  0
    2.5025   -4.5348    4.3746 C   0  0  0  0  0  0  0  0  0  0  0  0
    7.5894   -3.4851   -1.0375 H   0  0  0  0  0  0  0  0  0  0  0  0
    7.7022   -1.7975   -0.2983 H   0  0  0  0  0  0  0  0  0  0  0  0
    6.9715   -1.8046    2.1225 H   0  0  0  0  0  0  0  0  0  0  0  0
    4.8612   -0.2500    1.9923 H   0  0  0  0  0  0  0  0  0  0  0  0
    6.2370   -0.2366    0.9962 H   0  0  0  0  0  0  0  0  0  0  0  0
    4.9891   -0.4394   -0.7862 H   0  0  0  0  0  0  0  0  0  0  0  0
    4.5775   -3.6529   -1.8865 H   0  0  0  0  0  0  0  0  0  0  0  0
    4.6439   -1.9509   -2.2948 H   0  0  0  0  0  0  0  0  0  0  0  0
    3.0996   -2.7504   -2.3133 H   0  0  0  0  0  0  0  0  0  0  0  0
    1.5530   -4.8132    0.1291 H   0  0  0  0  0  0  0  0  0  0  0  0
    2.6237   -4.6577   -1.1594 H   0  0  0  0  0  0  0  0  0  0  0  0
    1.5984   -3.3103   -0.7173 H   0  0  0  0  0  0  0  0  0  0  0  0
    1.5581   -3.0498    1.7826 H   0  0  0  0  0  0  0  0  0  0  0  0
    2.9097   -1.1243    2.2987 H   0  0  0  0  0  0  0  0  0  0  0  0
    2.1288   -1.8771    3.5780 H   0  0  0  0  0  0  0  0  0  0  0  0
    4.5703   -1.0756    3.9026 H   0  0  0  0  0  0  0  0  0  0  0  0
    4.0442   -2.4127    4.7314 H   0  0  0  0  0  0  0  0  0  0  0  0
    6.1368   -2.7400    3.8409 H   0  0  0  0  0  0  0  0  0  0  0  0
    5.3815   -4.8678    4.0870 H   0  0  0  0  0  0  0  0  0  0  0  0
    7.3835   -4.6519    2.4404 H   0  0  0  0  0  0  0  0  0  0  0  0
    6.5284   -6.1063    2.2201 H   0  0  0  0  0  0  0  0  0  0  0  0
    6.3051   -5.1640    0.0294 H   0  0  0  0  0  0  0  0  0  0  0  0
    4.0939   -5.5469    0.2403 H   0  0  0  0  0  0  0  0  0  0  0  0
    4.9460   -7.1765    2.3275 H   0  0  0  0  0  0  0  0  0  0  0  0
    3.8331   -6.9172    3.6322 H   0  0  0  0  0  0  0  0  0  0  0  0
    0.6702   -5.0672    2.0105 H   0  0  0  0  0  0  0  0  0  0  0  0
    0.9921   -5.9935    3.3718 H   0  0  0  0  0  0  0  0  0  0  0  0
    2.2516   -5.5008    4.8151 H   0  0  0  0  0  0  0  0  0  0  0  0
    1.7151   -3.8402    4.6751 H   0  0  0  0  0  0  0  0  0  0  0  0
    3.4109   -4.2905    4.9092 H   0  0  0  0  0  0  0  0  0  0  0  0
  1  2  2  0
  1 27  1  0
  1 28  1  0
  2 17  1  0
  2  3  1  0
  3 14  1  0
  3  4  1  0
  3 29  1  1
  4  5  1  0
  4 30  1  0
  4 31  1  0
  5  7  1  0
  5  6  1  0
  5 32  1  6
  6  7  1  0
  7  8  1  6
  7  9  1  0
  8 33  1  0
  8 34  1  0
  8 35  1  0
  9 18  1  0
  9 10  1  6
  9 11  1  0
 10 36  1  0
 10 37  1  0
 10 38  1  0
 11 25  1  0
 11 12  1  0
 11 39  1  6
 12 13  1  0
 12 40  1  0
 12 41  1  0
 13 14  1  0
 13 42  1  0
 13 43  1  0
 14 15  1  0
 14 44  1  1
 15 19  1  0
 15 16  1  0
 15 45  1  1
 16 17  1  0
 16 46  1  0
 16 47  1  0
 17 18  1  0
 17 48  1  6
 18 19  1  0
 18 49  1  6
 19 25  1  0
 19 20  1  6
 20 21  1  0
 20 50  1  0
 20 51  1  0
 21 22  1  0
 22 23  2  0
 22 24  1  0
 24 25  1  0
 24 52  1  0
 24 53  1  0
 25 26  1  1
 26 54  1  0
 26 55  1  0
 26 56  1  0
M  END
>  <i_m_ct_stereo_status>  (8) 
1

>  <s_m_source_file>  (8) 
/var/tmp/pbs.5076255.sched01/tmpn440o9cr/0yczfkg0t.sdf

>  <i_m_source_file_index>  (8) 
5

>  <i_lp_mmshare_version>  (8) 
48012

>  <i_f3d_flags>  (8) 
0

>  <s_epik_input>  (8) 
W0NAXTEyM1tDQEBIXTRbQ0BIXTVbQ0BIXTZDKD1bQ0gyXSlbQ0BASF0oW0NIMl00KVtDQEBIXTFbQ0BdKFtDSDNdKShbQ0BdNyhbQ0gzXSlbQ0BASF0oTzcpW0NIMl02KVtDQEhdKFtDSDJdW0NIMl01KVtDQEBdMyhbQ0gzXSlbQ0gyXUMoPU8pT1tDSDJdMg==

>  <s_epik_cmdline>  (8) 
J2VwaWtfcHl0aG9uJywgJy1waHQnLCAnMi4wJywgJy1waCcsICc3LjAnLCAnLXRuJywgJzgnLCAnLW1hJywgJzIwMCcsICctaW1hZScsICc8aW5maWxlLm1hZT4nLCAnLW9tYWUnLCAnPG91dGZpbGUubWFlPic=

>  <r_lp_tautomer_probability>  (8) 
1

>  <r_epik_Ionization_Penalty>  (8) 
1.55344e-09

>  <r_epik_Ionization_Penalty_Charging>  (8) 
0

>  <r_epik_Ionization_Penalty_Neutral>  (8) 
1.55344e-09

>  <r_epik_State_Penalty>  (8) 
-0

>  <r_epik_Charging_Adjusted_Penalty>  (8) 
0

>  <i_epik_Tot_Q>  (8) 
0

>  <i_epik_Tot_abs_Q>  (8) 
0

>  <s_epik_Chemistry_Notes>  (8) 
This compound has an ester and may undergo hydrolysis at high or low pH.

>  <s_lp_Force_Field>  (8) 
OPLS3e

>  <r_lp_Energy>  (8) 
134.396

>  <b_lp_Chiralities_Consistent>  (8) 
1

>  <s_lp_Variant>  (8) 
4:0-1

>  <s_i_glide_gridfile>  (8) 
pfpi4k_grid

>  <i_i_glide_lignum>  (8) 
5

>  <i_i_glide_rotatable_bonds>  (8) 
0

>  <r_i_docking_score>  (8) 
-2.23246

>  <r_i_glide_ligand_efficiency>  (8) 
-0.0858638

>  <r_i_glide_ligand_efficiency_sa>  (8) 
-0.254371

>  <r_i_glide_ligand_efficiency_ln>  (8) 
-0.524286

>  <r_i_glide_gscore>  (8) 
-2.23246

>  <r_i_glide_lipo>  (8) 
-0.559652

>  <r_i_glide_hbond>  (8) 
0

>  <r_i_glide_metal>  (8) 
-0

>  <r_i_glide_rewards>  (8) 
-0.992165

>  <r_i_glide_evdw>  (8) 
-17.3468

>  <r_i_glide_ecoul>  (8) 
1.45808

>  <r_i_glide_erotb>  (8) 
0

>  <r_i_glide_esite>  (8) 
-0.0320134

>  <r_i_glide_emodel>  (8) 
-16.5767

>  <r_i_glide_energy>  (8) 
-15.8887

>  <r_i_glide_einternal>  (8) 
0

>  <r_i_glide_intrahb_reward>  (8) 
-0

>  <i_i_glide_confnum>  (8) 
2

>  <i_i_glide_posenum>  (8) 
25

>  <r_i_glide_eff_state_penalty>  (8) 
0

>  <ligand_id>  (8) 
4

>  <original_smiles>  (8) 
C=C1C2CC3OC3(C)C3(C)C4CCC2C2CC1C3C21COC(=O)CC41C

>  <smiles>  (8) 
[H]C([H])=C1C2([H])C([H])([H])C3([H])OC3(C([H])([H])[H])C3(C([H])([H])[H])C4([H])C([H])([H])C([H])([H])C2([H])C2([H])C([H])([H])C1([H])C3([H])C21C([H])([H])OC(=O)C([H])([H])C41C([H])([H])[H]

$$$$
4:0:2
     RDKit          3D

 56 62  0  0  1  0  0  0  0  0999 V2000
    7.2267   -2.9606   -1.4412 C   0  0  0  0  0  0  0  0  0  0  0  0
    6.5193   -2.9960   -0.2908 C   0  0  0  0  0  0  0  0  0  0  0  0
    6.2238   -1.7525    0.5370 C   0  0  1  0  0  0  0  0  0  0  0  0
    5.4445   -0.7051   -0.2795 C   0  0  0  0  0  0  0  0  0  0  0  0
    4.5623   -1.2688   -1.3529 C   0  0  2  0  0  0  0  0  0  0  0  0
    3.1488   -1.3234   -1.2219 O   0  0  0  0  0  0  0  0  0  0  0  0
    3.8108   -2.5793   -1.1795 C   0  0  1  0  0  0  0  0  0  0  0  0
    3.8411   -3.3691   -2.4908 C   0  0  0  0  0  0  0  0  0  0  0  0
    3.4206   -3.4282    0.0999 C   0  0  2  0  0  0  0  0  0  0  0  0
    2.2171   -4.2417   -0.4298 C   0  0  0  0  0  0  0  0  0  0  0  0
    2.8603   -2.7396    1.4423 C   0  0  2  0  0  0  0  0  0  0  0  0
    3.2621   -1.2931    1.8426 C   0  0  0  0  0  0  0  0  0  0  0  0
    4.6461   -1.0810    2.4871 C   0  0  0  0  0  0  0  0  0  0  0  0
    5.7549   -2.0346    2.0064 C   0  0  1  0  0  0  0  0  0  0  0  0
    5.6852   -3.5532    2.4758 C   0  0  2  0  0  0  0  0  0  0  0  0
    6.7336   -4.3148    1.6656 C   0  0  0  0  0  0  0  0  0  0  0  0
    6.0452   -4.2956    0.3079 C   0  0  1  0  0  0  0  0  0  0  0  0
    4.5067   -4.4450    0.6241 C   0  0  1  0  0  0  0  0  0  0  0  0
    4.4181   -4.4009    2.1764 C   0  0  1  0  0  0  0  0  0  0  0  0
    4.4879   -5.8032    2.8537 C   0  0  0  0  0  0  0  0  0  0  0  0
    3.4544   -6.6676    2.4094 O   0  0  0  0  0  0  0  0  0  0  0  0
    2.1900   -6.2574    2.3232 C   0  0  0  0  0  0  0  0  0  0  0  0
    1.2686   -6.9577    1.9130 O   0  0  0  0  0  0  0  0  0  0  0  0
    1.9075   -4.8155    2.7400 C   0  0  0  0  0  0  0  0  0  0  0  0
    3.0756   -3.7638    2.6195 C   0  0  2  0  0  0  0  0  0  0  0  0
    3.1125   -3.2110    4.0830 C   0  0  0  0  0  0  0  0  0  0  0  0
    7.4533   -3.8454   -2.0049 H   0  0  0  0  0  0  0  0  0  0  0  0
    7.5937   -2.0409   -1.8517 H   0  0  0  0  0  0  0  0  0  0  0  0
    7.2092   -1.3034    0.6665 H   0  0  0  0  0  0  0  0  0  0  0  0
    4.9736    0.1269    0.2361 H   0  0  0  0  0  0  0  0  0  0  0  0
    6.2137   -0.2079   -0.8450 H   0  0  0  0  0  0  0  0  0  0  0  0
    4.8221   -0.9008   -2.3486 H   0  0  0  0  0  0  0  0  0  0  0  0
    4.4129   -4.2881   -2.3618 H   0  0  0  0  0  0  0  0  0  0  0  0
    4.3251   -2.8016   -3.2854 H   0  0  0  0  0  0  0  0  0  0  0  0
    2.8329   -3.5917   -2.8498 H   0  0  0  0  0  0  0  0  0  0  0  0
    1.6447   -4.7699    0.3013 H   0  0  0  0  0  0  0  0  0  0  0  0
    2.4873   -5.0231   -1.1155 H   0  0  0  0  0  0  0  0  0  0  0  0
    1.5091   -3.5941   -0.9529 H   0  0  0  0  0  0  0  0  0  0  0  0
    1.7886   -2.6098    1.3035 H   0  0  0  0  0  0  0  0  0  0  0  0
    3.1099   -0.6163    1.0093 H   0  0  0  0  0  0  0  0  0  0  0  0
    2.5287   -0.9257    2.5622 H   0  0  0  0  0  0  0  0  0  0  0  0
    4.9529   -0.0510    2.3176 H   0  0  0  0  0  0  0  0  0  0  0  0
    4.5874   -1.0724    3.5713 H   0  0  0  0  0  0  0  0  0  0  0  0
    6.6057   -1.6537    2.5690 H   0  0  0  0  0  0  0  0  0  0  0  0
    5.8861   -3.6120    3.5426 H   0  0  0  0  0  0  0  0  0  0  0  0
    7.7060   -3.8196    1.6691 H   0  0  0  0  0  0  0  0  0  0  0  0
    6.9397   -5.3197    2.0161 H   0  0  0  0  0  0  0  0  0  0  0  0
    6.3817   -5.1297   -0.3051 H   0  0  0  0  0  0  0  0  0  0  0  0
    4.2287   -5.4430    0.2836 H   0  0  0  0  0  0  0  0  0  0  0  0
    5.4143   -6.3321    2.6455 H   0  0  0  0  0  0  0  0  0  0  0  0
    4.4501   -5.6955    3.9391 H   0  0  0  0  0  0  0  0  0  0  0  0
    1.0201   -4.4784    2.2078 H   0  0  0  0  0  0  0  0  0  0  0  0
    1.5393   -4.9119    3.7618 H   0  0  0  0  0  0  0  0  0  0  0  0
    2.9579   -3.9920    4.8272 H   0  0  0  0  0  0  0  0  0  0  0  0
    2.3415   -2.4600    4.2571 H   0  0  0  0  0  0  0  0  0  0  0  0
    4.0631   -2.8085    4.3960 H   0  0  0  0  0  0  0  0  0  0  0  0
  1  2  2  0
  1 27  1  0
  1 28  1  0
  2 17  1  0
  2  3  1  0
  3 14  1  0
  3  4  1  0
  3 29  1  1
  4  5  1  0
  4 30  1  0
  4 31  1  0
  5  7  1  0
  5  6  1  0
  5 32  1  6
  6  7  1  0
  7  8  1  6
  7  9  1  0
  8 33  1  0
  8 34  1  0
  8 35  1  0
  9 18  1  0
  9 10  1  6
  9 11  1  0
 10 36  1  0
 10 37  1  0
 10 38  1  0
 11 25  1  0
 11 12  1  0
 11 39  1  6
 12 13  1  0
 12 40  1  0
 12 41  1  0
 13 14  1  0
 13 42  1  0
 13 43  1  0
 14 15  1  0
 14 44  1  1
 15 19  1  0
 15 16  1  0
 15 45  1  1
 16 17  1  0
 16 46  1  0
 16 47  1  0
 17 18  1  0
 17 48  1  6
 18 19  1  0
 18 49  1  6
 19 25  1  0
 19 20  1  1
 20 21  1  0
 20 50  1  0
 20 51  1  0
 21 22  1  0
 22 23  2  0
 22 24  1  0
 24 25  1  0
 24 52  1  0
 24 53  1  0
 25 26  1  1
 26 54  1  0
 26 55  1  0
 26 56  1  0
M  END
>  <i_m_ct_stereo_status>  (9) 
1

>  <s_m_source_file>  (9) 
/var/tmp/pbs.5076255.sched01/tmpn440o9cr/0yczfkg0t.sdf

>  <i_m_source_file_index>  (9) 
5

>  <i_lp_mmshare_version>  (9) 
48012

>  <i_f3d_flags>  (9) 
0

>  <s_epik_input>  (9) 
W0NAXTEyM1tDQEBIXTRbQ0BIXTVbQ0BIXTZDKD1bQ0gyXSlbQ0BASF0oW0NIMl00KVtDQEBIXTFbQ0BdKFtDSDNdKShbQ0BdNyhbQ0gzXSlbQ0BASF0oTzcpW0NIMl02KVtDQEhdKFtDSDJdW0NIMl01KVtDQEBdMyhbQ0gzXSlbQ0gyXUMoPU8pT1tDSDJdMg==

>  <s_epik_cmdline>  (9) 
J2VwaWtfcHl0aG9uJywgJy1waHQnLCAnMi4wJywgJy1waCcsICc3LjAnLCAnLXRuJywgJzgnLCAnLW1hJywgJzIwMCcsICctaW1hZScsICc8aW5maWxlLm1hZT4nLCAnLW9tYWUnLCAnPG91dGZpbGUubWFlPic=

>  <r_lp_tautomer_probability>  (9) 
1

>  <r_epik_Ionization_Penalty>  (9) 
1.55344e-09

>  <r_epik_Ionization_Penalty_Charging>  (9) 
0

>  <r_epik_Ionization_Penalty_Neutral>  (9) 
1.55344e-09

>  <r_epik_State_Penalty>  (9) 
-0

>  <r_epik_Charging_Adjusted_Penalty>  (9) 
0

>  <i_epik_Tot_Q>  (9) 
0

>  <i_epik_Tot_abs_Q>  (9) 
0

>  <s_epik_Chemistry_Notes>  (9) 
This compound has an ester and may undergo hydrolysis at high or low pH.

>  <s_lp_Force_Field>  (9) 
OPLS3e

>  <r_lp_Energy>  (9) 
134.396

>  <b_lp_Chiralities_Consistent>  (9) 
1

>  <s_lp_Variant>  (9) 
4:0-1

>  <s_i_glide_gridfile>  (9) 
pfpi4k_grid

>  <i_i_glide_lignum>  (9) 
5

>  <i_i_glide_rotatable_bonds>  (9) 
0

>  <r_i_docking_score>  (9) 
-2.05649

>  <r_i_glide_ligand_efficiency>  (9) 
-0.079096

>  <r_i_glide_ligand_efficiency_sa>  (9) 
-0.234321

>  <r_i_glide_ligand_efficiency_ln>  (9) 
-0.482961

>  <r_i_glide_gscore>  (9) 
-2.05649

>  <r_i_glide_lipo>  (9) 
-0.527938

>  <r_i_glide_hbond>  (9) 
0

>  <r_i_glide_metal>  (9) 
-0

>  <r_i_glide_rewards>  (9) 
-0.992165

>  <r_i_glide_evdw>  (9) 
-15.6966

>  <r_i_glide_ecoul>  (9) 
1.73572

>  <r_i_glide_erotb>  (9) 
0

>  <r_i_glide_esite>  (9) 
-0.0119223

>  <r_i_glide_emodel>  (9) 
-14.6576

>  <r_i_glide_energy>  (9) 
-13.9608

>  <r_i_glide_einternal>  (9) 
0

>  <r_i_glide_intrahb_reward>  (9) 
-0

>  <i_i_glide_confnum>  (9) 
2

>  <i_i_glide_posenum>  (9) 
17

>  <r_i_glide_eff_state_penalty>  (9) 
0

>  <ligand_id>  (9) 
4

>  <original_smiles>  (9) 
C=C1C2CC3OC3(C)C3(C)C4CCC2C2CC1C3C21COC(=O)CC41C

>  <smiles>  (9) 
[H]C([H])=C1C2([H])C([H])([H])C3([H])OC3(C([H])([H])[H])C3(C([H])([H])[H])C4([H])C([H])([H])C([H])([H])C2([H])C2([H])C([H])([H])C1([H])C3([H])C21C([H])([H])OC(=O)C([H])([H])C41C([H])([H])[H]

$$$$
5:0:0
     RDKit          3D

 44 48  0  0  1  0  0  0  0  0999 V2000
    1.9589   -3.7999   -1.4125 C   0  0  0  0  0  0  0  0  0  0  0  0
    3.0441   -4.1226   -0.3464 C   0  0  1  0  0  0  0  0  0  0  0  0
    2.4674   -5.2521    0.5723 C   0  0  0  0  0  0  0  0  0  0  0  0
    3.2394   -5.5561    1.8701 C   0  0  0  0  0  0  0  0  0  0  0  0
    3.9483   -4.3275    2.4843 C   0  0  1  0  0  0  0  0  0  0  0  0
    4.9501   -4.8107    3.3606 O   0  0  0  0  0  0  0  0  0  0  0  0
    4.5184   -3.3967    1.3745 C   0  0  2  0  0  0  0  0  0  0  0  0
    5.3387   -4.2456    0.3653 C   0  0  0  0  0  0  0  0  0  0  0  0
    4.4733   -4.3974   -0.9044 C   0  0  2  0  0  0  0  0  0  0  0  0
    4.8182   -3.3486   -1.9800 C   0  0  2  0  0  0  0  0  0  0  0  0
    4.2504   -3.6973   -3.2230 O   0  0  0  0  0  0  0  0  0  0  0  0
    6.2548   -3.2208   -2.0495 O   0  0  0  0  0  0  0  0  0  0  0  0
    6.1563   -1.8719   -1.5530 C   0  0  0  0  0  0  0  0  0  0  0  0
    4.6325   -1.8684   -1.5436 C   0  0  1  0  0  0  0  0  0  0  0  0
    4.0460   -0.9108   -2.5969 C   0  0  0  0  0  0  0  0  0  0  0  0
    3.8747   -1.6232   -0.1990 C   0  0  2  0  0  0  0  0  0  0  0  0
    4.7026   -0.9584    0.9169 C   0  0  0  0  0  0  0  0  0  0  0  0
    5.2461   -2.0941    1.8132 C   0  0  1  0  0  0  0  0  0  0  0  0
    5.0513   -1.7404    3.1672 O   0  0  0  0  0  0  0  0  0  0  0  0
    3.3561   -2.8965    0.5185 C   0  0  1  0  0  0  0  0  0  0  0  0
    1.0143   -3.5677   -0.9504 H   0  0  0  0  0  0  0  0  0  0  0  0
    1.7327   -4.6390   -2.0748 H   0  0  0  0  0  0  0  0  0  0  0  0
    2.1609   -2.9065   -2.0117 H   0  0  0  0  0  0  0  0  0  0  0  0
    1.4609   -4.9870    0.8866 H   0  0  0  0  0  0  0  0  0  0  0  0
    2.3430   -6.1723    0.0015 H   0  0  0  0  0  0  0  0  0  0  0  0
    2.5675   -5.9871    2.6108 H   0  0  0  0  0  0  0  0  0  0  0  0
    3.9531   -6.3492    1.6563 H   0  0  0  0  0  0  0  0  0  0  0  0
    3.2306   -3.7660    3.0846 H   0  0  0  0  0  0  0  0  0  0  0  0
    5.6143   -5.2545    2.8535 H   0  0  0  0  0  0  0  0  0  0  0  0
    6.3277   -3.8337    0.1861 H   0  0  0  0  0  0  0  0  0  0  0  0
    5.5658   -5.2343    0.7528 H   0  0  0  0  0  0  0  0  0  0  0  0
    4.6287   -5.4078   -1.2853 H   0  0  0  0  0  0  0  0  0  0  0  0
    3.6522   -4.4331   -3.0413 H   0  0  0  0  0  0  0  0  0  0  0  0
    6.6646   -1.7327   -0.6010 H   0  0  0  0  0  0  0  0  0  0  0  0
    6.4926   -1.1685   -2.2873 H   0  0  0  0  0  0  0  0  0  0  0  0
    4.1969    0.1288   -2.3172 H   0  0  0  0  0  0  0  0  0  0  0  0
    2.9798   -1.0592   -2.7523 H   0  0  0  0  0  0  0  0  0  0  0  0
    4.5218   -1.0392   -3.5668 H   0  0  0  0  0  0  0  0  0  0  0  0
    3.0269   -0.9670   -0.3971 H   0  0  0  0  0  0  0  0  0  0  0  0
    5.4777   -0.2789    0.5598 H   0  0  0  0  0  0  0  0  0  0  0  0
    4.0295   -0.3357    1.5066 H   0  0  0  0  0  0  0  0  0  0  0  0
    6.3249   -2.2014    1.6958 H   0  0  0  0  0  0  0  0  0  0  0  0
    4.1258   -1.6480    3.3383 H   0  0  0  0  0  0  0  0  0  0  0  0
    2.5126   -2.6152    1.1448 H   0  0  0  0  0  0  0  0  0  0  0  0
  2  1  1  6
  1 21  1  0
  1 22  1  0
  1 23  1  0
  2  9  1  0
  2 20  1  0
  2  3  1  0
  3  4  1  0
  3 24  1  0
  3 25  1  0
  4  5  1  0
  4 26  1  0
  4 27  1  0
  5  6  1  0
  5  7  1  0
  5 28  1  1
  6 29  1  0
  7 18  1  0
  7 20  1  0
  7  8  1  6
  8  9  1  0
  8 30  1  0
  8 31  1  0
  9 10  1  0
  9 32  1  6
 10 14  1  0
 10 11  1  6
 10 12  1  0
 11 33  1  0
 12 13  1  0
 13 14  1  0
 13 34  1  0
 13 35  1  0
 14 15  1  6
 14 16  1  0
 15 36  1  0
 15 37  1  0
 15 38  1  0
 16 17  1  0
 16 20  1  0
 16 39  1  6
 17 18  1  0
 17 40  1  0
 17 41  1  0
 18 19  1  0
 18 42  1  1
 19 43  1  0
 20 44  1  1
M  END
>  <i_m_ct_stereo_status>  (10) 
1

>  <s_m_source_file>  (10) 
/var/tmp/pbs.5076255.sched01/tmpn440o9cr/0yczfkg0t.sdf

>  <i_m_source_file_index>  (10) 
6

>  <i_lp_mmshare_version>  (10) 
48012

>  <i_f3d_flags>  (10) 
0

>  <s_epik_input>  (10) 
W09IXVtDQEBIXTFbQ0gyXVtDSDJdW0NAQF0oW0NIM10pKFtDQEhdMltDQEBdMTM0KVtDQEhdKFtDSDJdMylbQ0BAXTUoW09IXSlbQ0BAXShbQ0gyXU81KShbQ0gzXSlbQ0BASF0yW0NIMl1bQ0BIXTRbT0hd

>  <s_epik_cmdline>  (10) 
J2VwaWtfcHl0aG9uJywgJy1waHQnLCAnMi4wJywgJy1waCcsICc3LjAnLCAnLXRuJywgJzgnLCAnLW1hJywgJzIwMCcsICctaW1hZScsICc8aW5maWxlLm1hZT4nLCAnLW9tYWUnLCAnPG91dGZpbGUubWFlPic=

>  <r_lp_tautomer_probability>  (10) 
1

>  <r_epik_Ionization_Penalty>  (10) 
1.51912e-06

>  <r_epik_Ionization_Penalty_Charging>  (10) 
0

>  <r_epik_Ionization_Penalty_Neutral>  (10) 
1.51912e-06

>  <r_epik_State_Penalty>  (10) 
-0

>  <r_epik_Charging_Adjusted_Penalty>  (10) 
0

>  <i_epik_Tot_Q>  (10) 
0

>  <i_epik_Tot_abs_Q>  (10) 
0

>  <s_lp_Force_Field>  (10) 
OPLS3e

>  <r_lp_Energy>  (10) 
46.3946

>  <b_lp_Chiralities_Consistent>  (10) 
1

>  <s_lp_Variant>  (10) 
5:0-1

>  <s_i_glide_gridfile>  (10) 
pfpi4k_grid

>  <i_i_glide_lignum>  (10) 
6

>  <i_i_glide_rotatable_bonds>  (10) 
3

>  <r_i_docking_score>  (10) 
-3.20454

>  <r_i_glide_ligand_efficiency>  (10) 
-0.160227

>  <r_i_glide_ligand_efficiency_sa>  (10) 
-0.434923

>  <r_i_glide_ligand_efficiency_ln>  (10) 
-0.80199

>  <r_i_glide_gscore>  (10) 
-3.20454

>  <r_i_glide_lipo>  (10) 
-0.238531

>  <r_i_glide_hbond>  (10) 
0

>  <r_i_glide_metal>  (10) 
-0

>  <r_i_glide_rewards>  (10) 
-1.59015

>  <r_i_glide_evdw>  (10) 
-13.6651

>  <r_i_glide_ecoul>  (10) 
-4.6173

>  <r_i_glide_erotb>  (10) 
0

>  <r_i_glide_esite>  (10) 
0

>  <r_i_glide_emodel>  (10) 
-21.106

>  <r_i_glide_energy>  (10) 
-18.2824

>  <r_i_glide_einternal>  (10) 
1.53005

>  <r_i_glide_intrahb_reward>  (10) 
-0

>  <i_i_glide_confnum>  (10) 
2

>  <i_i_glide_posenum>  (10) 
1

>  <r_i_glide_eff_state_penalty>  (10) 
0

>  <ligand_id>  (10) 
5

>  <original_smiles>  (10) 
CC12CCC(O)C34CC1C1(O)OCC1(C)C(CC3O)C24

>  <smiles>  (10) 
[H]OC1([H])C([H])([H])C([H])([H])C2(C([H])([H])[H])C3([H])C([H])([H])C14C([H])(O[H])C([H])([H])C([H])(C42[H])C1(C([H])([H])[H])C([H])([H])OC31O[H]

$$$$
5:0:1
     RDKit          3D

 44 48  0  0  1  0  0  0  0  0999 V2000
    3.8201   -1.7286   -1.0497 C   0  0  0  0  0  0  0  0  0  0  0  0
    4.2323   -2.8427   -0.0565 C   0  0  1  0  0  0  0  0  0  0  0  0
    4.6159   -4.0837   -0.9301 C   0  0  0  0  0  0  0  0  0  0  0  0
    4.8155   -5.4312   -0.1944 C   0  0  0  0  0  0  0  0  0  0  0  0
    3.9224   -5.5983    1.0566 C   0  0  1  0  0  0  0  0  0  0  0  0
    4.4835   -6.5947    1.8917 O   0  0  0  0  0  0  0  0  0  0  0  0
    3.7779   -4.2500    1.8171 C   0  0  2  0  0  0  0  0  0  0  0  0
    5.1829   -3.6203    2.0292 C   0  0  0  0  0  0  0  0  0  0  0  0
    5.2961   -2.4527    1.0132 C   0  0  2  0  0  0  0  0  0  0  0  0
    4.9180   -1.1075    1.6868 C   0  0  2  0  0  0  0  0  0  0  0  0
    5.3753   -0.0507    0.8811 O   0  0  0  0  0  0  0  0  0  0  0  0
    5.4785   -1.0083    3.0155 O   0  0  0  0  0  0  0  0  0  0  0  0
    4.1591   -0.9873    3.5924 C   0  0  0  0  0  0  0  0  0  0  0  0
    3.4704   -0.9777    2.2171 C   0  0  1  0  0  0  0  0  0  0  0  0
    2.7452    0.3547    1.9443 C   0  0  0  0  0  0  0  0  0  0  0  0
    2.5002   -2.1466    1.8185 C   0  0  2  0  0  0  0  0  0  0  0  0
    1.9800   -2.9945    2.9938 C   0  0  0  0  0  0  0  0  0  0  0  0
    2.8927   -4.2365    3.0971 C   0  0  1  0  0  0  0  0  0  0  0  0
    2.0815   -5.3878    3.2257 O   0  0  0  0  0  0  0  0  0  0  0  0
    3.0918   -3.2429    0.8851 C   0  0  1  0  0  0  0  0  0  0  0  0
    3.0800   -2.0918   -1.7646 H   0  0  0  0  0  0  0  0  0  0  0  0
    4.6788   -1.3723   -1.6193 H   0  0  0  0  0  0  0  0  0  0  0  0
    3.3545   -0.8740   -0.5694 H   0  0  0  0  0  0  0  0  0  0  0  0
    3.8176   -4.2438   -1.6553 H   0  0  0  0  0  0  0  0  0  0  0  0
    5.5061   -3.8631   -1.5205 H   0  0  0  0  0  0  0  0  0  0  0  0
    4.6275   -6.2546   -0.8841 H   0  0  0  0  0  0  0  0  0  0  0  0
    5.8679   -5.5259    0.0707 H   0  0  0  0  0  0  0  0  0  0  0  0
    2.9376   -5.9469    0.7424 H   0  0  0  0  0  0  0  0  0  0  0  0
    4.5144   -7.4133    1.4168 H   0  0  0  0  0  0  0  0  0  0  0  0
    5.3426   -3.3284    3.0629 H   0  0  0  0  0  0  0  0  0  0  0  0
    5.9835   -4.3368    1.8629 H   0  0  0  0  0  0  0  0  0  0  0  0
    6.3043   -2.4119    0.5959 H   0  0  0  0  0  0  0  0  0  0  0  0
    4.8328   -0.0382    0.1068 H   0  0  0  0  0  0  0  0  0  0  0  0
    3.9892   -1.8615    4.2167 H   0  0  0  0  0  0  0  0  0  0  0  0
    3.9850   -0.0818    4.1702 H   0  0  0  0  0  0  0  0  0  0  0  0
    1.8447    0.4435    2.5488 H   0  0  0  0  0  0  0  0  0  0  0  0
    2.4444    0.4666    0.9053 H   0  0  0  0  0  0  0  0  0  0  0  0
    3.3754    1.2111    2.1868 H   0  0  0  0  0  0  0  0  0  0  0  0
    1.6406   -1.7205    1.3026 H   0  0  0  0  0  0  0  0  0  0  0  0
    1.8911   -2.4457    3.9299 H   0  0  0  0  0  0  0  0  0  0  0  0
    0.9687   -3.3202    2.7614 H   0  0  0  0  0  0  0  0  0  0  0  0
    3.5144   -4.1848    3.9919 H   0  0  0  0  0  0  0  0  0  0  0  0
    2.6631   -6.1274    3.3462 H   0  0  0  0  0  0  0  0  0  0  0  0
    2.2722   -3.7154    0.3393 H   0  0  0  0  0  0  0  0  0  0  0  0
  2  1  1  6
  1 21  1  0
  1 22  1  0
  1 23  1  0
  2  9  1  0
  2 20  1  0
  2  3  1  0
  3  4  1  0
  3 24  1  0
  3 25  1  0
  4  5  1  0
  4 26  1  0
  4 27  1  0
  5  6  1  0
  5  7  1  0
  5 28  1  6
  6 29  1  0
  7 18  1  0
  7 20  1  0
  7  8  1  1
  8  9  1  0
  8 30  1  0
  8 31  1  0
  9 10  1  0
  9 32  1  6
 10 14  1  0
 10 11  1  6
 10 12  1  0
 11 33  1  0
 12 13  1  0
 13 14  1  0
 13 34  1  0
 13 35  1  0
 14 15  1  6
 14 16  1  0
 15 36  1  0
 15 37  1  0
 15 38  1  0
 16 17  1  0
 16 20  1  0
 16 39  1  6
 17 18  1  0
 17 40  1  0
 17 41  1  0
 18 19  1  0
 18 42  1  1
 19 43  1  0
 20 44  1  6
M  END
>  <i_m_ct_stereo_status>  (11) 
1

>  <s_m_source_file>  (11) 
/var/tmp/pbs.5076255.sched01/tmpn440o9cr/0yczfkg0t.sdf

>  <i_m_source_file_index>  (11) 
6

>  <i_lp_mmshare_version>  (11) 
48012

>  <i_f3d_flags>  (11) 
0

>  <s_epik_input>  (11) 
W09IXVtDQEBIXTFbQ0gyXVtDSDJdW0NAQF0oW0NIM10pKFtDQEhdMltDQEBdMTM0KVtDQEhdKFtDSDJdMylbQ0BAXTUoW09IXSlbQ0BAXShbQ0gyXU81KShbQ0gzXSlbQ0BASF0yW0NIMl1bQ0BIXTRbT0hd

>  <s_epik_cmdline>  (11) 
J2VwaWtfcHl0aG9uJywgJy1waHQnLCAnMi4wJywgJy1waCcsICc3LjAnLCAnLXRuJywgJzgnLCAnLW1hJywgJzIwMCcsICctaW1hZScsICc8aW5maWxlLm1hZT4nLCAnLW9tYWUnLCAnPG91dGZpbGUubWFlPic=

>  <r_lp_tautomer_probability>  (11) 
1

>  <r_epik_Ionization_Penalty>  (11) 
1.51912e-06

>  <r_epik_Ionization_Penalty_Charging>  (11) 
0

>  <r_epik_Ionization_Penalty_Neutral>  (11) 
1.51912e-06

>  <r_epik_State_Penalty>  (11) 
-0

>  <r_epik_Charging_Adjusted_Penalty>  (11) 
0

>  <i_epik_Tot_Q>  (11) 
0

>  <i_epik_Tot_abs_Q>  (11) 
0

>  <s_lp_Force_Field>  (11) 
OPLS3e

>  <r_lp_Energy>  (11) 
46.3946

>  <b_lp_Chiralities_Consistent>  (11) 
1

>  <s_lp_Variant>  (11) 
5:0-1

>  <s_i_glide_gridfile>  (11) 
pfpi4k_grid

>  <i_i_glide_lignum>  (11) 
6

>  <i_i_glide_rotatable_bonds>  (11) 
3

>  <r_i_docking_score>  (11) 
-2.85655

>  <r_i_glide_ligand_efficiency>  (11) 
-0.142828

>  <r_i_glide_ligand_efficiency_sa>  (11) 
-0.387694

>  <r_i_glide_ligand_efficiency_ln>  (11) 
-0.714901

>  <r_i_glide_gscore>  (11) 
-2.85655

>  <r_i_glide_lipo>  (11) 
-0.14447

>  <r_i_glide_hbond>  (11) 
0

>  <r_i_glide_metal>  (11) 
-0

>  <r_i_glide_rewards>  (11) 
-1.62413

>  <r_i_glide_evdw>  (11) 
-14.5897

>  <r_i_glide_ecoul>  (11) 
-2.38977

>  <r_i_glide_erotb>  (11) 
0

>  <r_i_glide_esite>  (11) 
0

>  <r_i_glide_emodel>  (11) 
-19.4329

>  <r_i_glide_energy>  (11) 
-16.9795

>  <r_i_glide_einternal>  (11) 
1.67351

>  <r_i_glide_intrahb_reward>  (11) 
-0

>  <i_i_glide_confnum>  (11) 
1

>  <i_i_glide_posenum>  (11) 
38

>  <r_i_glide_eff_state_penalty>  (11) 
0

>  <ligand_id>  (11) 
5

>  <original_smiles>  (11) 
CC12CCC(O)C34CC1C1(O)OCC1(C)C(CC3O)C24

>  <smiles>  (11) 
[H]OC1([H])C([H])([H])C([H])([H])C2(C([H])([H])[H])C3([H])C([H])([H])C14C([H])(O[H])C([H])([H])C([H])(C42[H])C1(C([H])([H])[H])C([H])([H])OC31O[H]

$$$$
6:0:0
     RDKit          3D

116128  0  0  1  0  0  0  0  0999 V2000
    0.1798   -5.7302    7.5719 C   0  0  0  0  0  0  0  0  0  0  0  0
   -0.1973   -6.8206    8.4241 O   0  0  0  0  0  0  0  0  0  0  0  0
    0.7759   -7.7477    8.7590 C   0  0  0  0  0  0  0  0  0  0  0  0
    0.4515   -8.8495    9.5715 C   0  0  0  0  0  0  0  0  0  0  0  0
    1.4392   -9.7686    9.9349 C   0  0  0  0  0  0  0  0  0  0  0  0
    2.7501   -9.5666    9.4856 C   0  0  0  0  0  0  0  0  0  0  0  0
    3.1467   -8.4991    8.6924 C   0  0  0  0  0  0  0  0  0  0  0  0
    2.1126   -7.6218    8.2998 C   0  0  0  0  0  0  0  0  0  0  0  0
    4.7075   -8.5007    8.4889 C   0  0  2  0  0  0  0  0  0  0  0  0
    4.8105  -10.0559    8.8859 C   0  0  2  0  0  0  0  0  0  0  0  0
    4.7998  -11.1234    7.7603 C   0  0  0  0  0  0  0  0  0  0  0  0
    5.9421  -11.0899    6.7163 C   0  0  0  0  0  0  0  0  0  0  0  0
    5.9762  -10.0817    5.6957 O   0  0  0  0  0  0  0  0  0  0  0  0
    5.1535   -8.9134    5.7625 C   0  0  2  0  0  0  0  0  0  0  0  0
    4.6806   -8.5674    4.1383 C   0  0  2  0  0  0  0  0  0  0  0  0
    5.7629   -7.8170    4.6357 O   0  0  0  0  0  0  0  0  0  0  0  0
    5.8812   -6.4831    4.7689 C   0  0  1  0  0  0  0  0  0  0  0  0
    6.6165   -5.8130    3.7565 O   0  0  0  0  0  0  0  0  0  0  0  0
    7.9642   -6.1935    3.4510 C   0  0  0  0  0  0  0  0  0  0  0  0
    4.5429   -5.8949    5.4028 C   0  0  1  0  0  0  0  0  0  0  0  0
    4.6246   -4.5228    4.6991 C   0  0  1  0  0  0  0  0  0  0  0  0
    5.8127   -3.7217    4.8138 O   0  0  0  0  0  0  0  0  0  0  0  0
    6.0491   -3.1193    6.0916 C   0  0  0  0  0  0  0  0  0  0  0  0
    4.1268   -4.9556    3.2214 C   0  0  2  0  0  0  0  0  0  0  0  0
    2.7368   -5.2443    3.6151 C   0  0  0  0  0  0  0  0  0  0  0  0
    2.9508   -6.0324    4.9246 C   0  0  1  0  0  0  0  0  0  0  0  0
    1.9602   -7.1295    5.0613 N   0  0  0  0  0  0  0  0  0  0  0  0
    0.6618   -6.9947    4.6423 C   0  0  0  0  0  0  0  0  0  0  0  0
    0.1013   -5.8653    4.6036 O   0  0  0  0  0  0  0  0  0  0  0  0
   -0.0816   -8.1918    4.0904 C   0  0  2  0  0  0  0  0  0  0  0  0
    0.6791   -9.1515    3.1430 C   0  0  2  0  0  0  0  0  0  0  0  0
    2.1993   -8.9023    2.8600 C   0  0  0  0  0  0  0  0  0  0  0  0
    3.1397   -8.9376    4.1415 C   0  0  2  0  0  0  0  0  0  0  0  0
    2.3706   -8.3643    5.2782 C   0  0  0  0  0  0  0  0  0  0  0  0
    1.8119   -9.1284    6.0405 O   0  0  0  0  0  0  0  0  0  0  0  0
   -0.4693   -8.2980    2.6231 C   0  0  0  0  0  0  0  0  0  0  0  0
   -1.7858   -9.0071    2.3259 C   0  0  0  0  0  0  0  0  0  0  0  0
   -0.2715   -7.1689    1.6244 C   0  0  0  0  0  0  0  0  0  0  0  0
    4.5726   -6.2452    2.2967 C   0  0  1  0  0  0  0  0  0  0  0  0
    5.4840   -5.7568    1.3242 O   0  0  0  0  0  0  0  0  0  0  0  0
    4.9820   -7.7923    2.7344 C   0  0  1  0  0  0  0  0  0  0  0  0
    6.1430   -8.2797    2.1041 O   0  0  0  0  0  0  0  0  0  0  0  0
    4.8553   -6.3514    6.9025 C   0  0  1  0  0  0  0  0  0  0  0  0
    4.2417   -5.5663    8.1112 C   0  0  0  0  0  0  0  0  0  0  0  0
    4.5341   -6.1836    9.5150 C   0  0  0  0  0  0  0  0  0  0  0  0
    5.4061   -7.5435    9.5823 C   0  0  2  0  0  0  0  0  0  0  0  0
    7.0834   -7.6154    9.8728 C   0  0  1  0  0  0  0  0  0  0  0  0
    7.2172   -6.1081   10.3142 C   0  0  0  0  0  0  0  0  0  0  0  0
    7.3741   -5.3100    8.9793 C   0  0  1  0  0  0  0  0  0  0  0  0
    8.3417   -4.1030    9.0879 C   0  0  0  0  0  0  0  0  0  0  0  0
    7.8465   -6.4063    7.9642 C   0  0  1  0  0  0  0  0  0  0  0  0
    8.4720   -7.0823    9.1375 C   0  0  0  0  0  0  0  0  0  0  0  0
    7.0920   -7.7457    7.4157 C   0  0  1  0  0  0  0  0  0  0  0  0
    8.0855   -8.3587    6.3705 C   0  0  0  0  0  0  0  0  0  0  0  0
    7.3831   -8.5642    8.6682 C   0  0  0  0  0  0  0  0  0  0  0  0
    5.4267   -7.8916    7.1121 C   0  0  1  0  0  0  0  0  0  0  0  0
    3.7476  -10.4327    9.7471 O   0  0  0  0  0  0  0  0  0  0  0  0
   -0.7004   -5.1336    7.2418 H   0  0  0  0  0  0  0  0  0  0  0  0
    0.5597   -6.0731    6.6381 H   0  0  0  0  0  0  0  0  0  0  0  0
    0.8610   -5.0649    8.1327 H   0  0  0  0  0  0  0  0  0  0  0  0
   -0.5787   -8.9615    9.8853 H   0  0  0  0  0  0  0  0  0  0  0  0
    1.1809  -10.6189   10.5390 H   0  0  0  0  0  0  0  0  0  0  0  0
    2.3677   -6.8998    7.5495 H   0  0  0  0  0  0  0  0  0  0  0  0
    5.5750  -10.2741    9.6246 H   0  0  0  0  0  0  0  0  0  0  0  0
    4.8809  -12.0820    8.2676 H   0  0  0  0  0  0  0  0  0  0  0  0
    3.8279  -11.1713    7.2676 H   0  0  0  0  0  0  0  0  0  0  0  0
    6.9092  -11.1375    7.2130 H   0  0  0  0  0  0  0  0  0  0  0  0
    5.8929  -12.0294    6.1707 H   0  0  0  0  0  0  0  0  0  0  0  0
    4.2923   -9.4079    6.1546 H   0  0  0  0  0  0  0  0  0  0  0  0
    6.7100   -6.3128    5.4291 H   0  0  0  0  0  0  0  0  0  0  0  0
    8.3137   -5.5875    2.6153 H   0  0  0  0  0  0  0  0  0  0  0  0
    8.0448   -7.2326    3.1372 H   0  0  0  0  0  0  0  0  0  0  0  0
    8.6520   -6.0587    4.2910 H   0  0  0  0  0  0  0  0  0  0  0  0
    3.8897   -3.8402    5.1274 H   0  0  0  0  0  0  0  0  0  0  0  0
    7.0367   -2.6452    6.1243 H   0  0  0  0  0  0  0  0  0  0  0  0
    6.0830   -3.8879    6.8805 H   0  0  0  0  0  0  0  0  0  0  0  0
    5.2746   -2.3888    6.3638 H   0  0  0  0  0  0  0  0  0  0  0  0
    4.1023   -4.0683    2.5951 H   0  0  0  0  0  0  0  0  0  0  0  0
    2.1572   -4.3344    3.7984 H   0  0  0  0  0  0  0  0  0  0  0  0
    2.2217   -5.7846    2.8423 H   0  0  0  0  0  0  0  0  0  0  0  0
    2.4833   -5.3922    5.6693 H   0  0  0  0  0  0  0  0  0  0  0  0
   -0.7899   -8.6100    4.7902 H   0  0  0  0  0  0  0  0  0  0  0  0
    0.4573  -10.1931    3.3267 H   0  0  0  0  0  0  0  0  0  0  0  0
    2.5069   -9.6813    2.1747 H   0  0  0  0  0  0  0  0  0  0  0  0
    2.2894   -7.9528    2.3397 H   0  0  0  0  0  0  0  0  0  0  0  0
    3.1642  -10.0147    4.3640 H   0  0  0  0  0  0  0  0  0  0  0  0
   -1.7617   -9.4433    1.3255 H   0  0  0  0  0  0  0  0  0  0  0  0
   -2.6154   -8.2993    2.3868 H   0  0  0  0  0  0  0  0  0  0  0  0
   -1.9655   -9.8064    3.0437 H   0  0  0  0  0  0  0  0  0  0  0  0
   -1.0921   -6.4523    1.6905 H   0  0  0  0  0  0  0  0  0  0  0  0
   -0.2247   -7.5677    0.6113 H   0  0  0  0  0  0  0  0  0  0  0  0
    0.6406   -6.6358    1.8100 H   0  0  0  0  0  0  0  0  0  0  0  0
    3.7410   -6.4082    1.6156 H   0  0  0  0  0  0  0  0  0  0  0  0
    5.5458   -6.3931    0.6167 H   0  0  0  0  0  0  0  0  0  0  0  0
    4.3965   -8.3544    2.0356 H   0  0  0  0  0  0  0  0  0  0  0  0
    6.8790   -7.9302    2.5845 H   0  0  0  0  0  0  0  0  0  0  0  0
    5.7689   -5.7935    7.0382 H   0  0  0  0  0  0  0  0  0  0  0  0
    4.5870   -4.5420    8.1247 H   0  0  0  0  0  0  0  0  0  0  0  0
    3.2030   -5.2550    8.0071 H   0  0  0  0  0  0  0  0  0  0  0  0
    4.7850   -5.3636   10.1749 H   0  0  0  0  0  0  0  0  0  0  0  0
    3.5721   -6.3951    9.9795 H   0  0  0  0  0  0  0  0  0  0  0  0
    5.0648   -7.9527   10.5177 H   0  0  0  0  0  0  0  0  0  0  0  0
    6.4671   -5.7590   11.0063 H   0  0  0  0  0  0  0  0  0  0  0  0
    8.0168   -5.9110   11.0410 H   0  0  0  0  0  0  0  0  0  0  0  0
    6.4660   -4.8295    8.7183 H   0  0  0  0  0  0  0  0  0  0  0  0
    9.3574   -4.3751    9.3773 H   0  0  0  0  0  0  0  0  0  0  0  0
    7.9770   -3.3845    9.8226 H   0  0  0  0  0  0  0  0  0  0  0  0
    8.4131   -3.5791    8.1348 H   0  0  0  0  0  0  0  0  0  0  0  0
    8.5709   -6.0007    7.2547 H   0  0  0  0  0  0  0  0  0  0  0  0
    9.2444   -6.5157    9.6790 H   0  0  0  0  0  0  0  0  0  0  0  0
    9.3523   -7.6819    8.8384 H   0  0  0  0  0  0  0  0  0  0  0  0
    8.1135   -9.4422    6.3932 H   0  0  0  0  0  0  0  0  0  0  0  0
    9.1164   -8.0729    6.5755 H   0  0  0  0  0  0  0  0  0  0  0  0
    7.9305   -8.0808    5.3431 H   0  0  0  0  0  0  0  0  0  0  0  0
    8.2758   -9.2104    8.7041 H   0  0  0  0  0  0  0  0  0  0  0  0
    6.9524   -9.5047    8.5984 H   0  0  0  0  0  0  0  0  0  0  0  0
  1  2  1  0
  1 58  1  0
  1 59  1  0
  1 60  1  0
  2  3  1  0
  3  8  1  0
  3  4  2  0
  4  5  1  0
  4 61  1  0
  5  6  2  0
  5 62  1  0
  6 57  1  0
  6  7  1  0
  7  8  2  0
  9  7  1  6
  8 63  1  0
  9 46  1  0
  9 56  1  0
  9 10  1  0
 10 11  1  0
 10 57  1  0
 10 64  1  1
 11 12  1  0
 11 65  1  0
 11 66  1  0
 12 13  1  0
 12 67  1  0
 12 68  1  0
 13 14  1  0
 14 56  1  0
 14 15  1  0
 14 69  1  1
 15 33  1  0
 15 41  1  0
 15 16  1  6
 16 17  1  0
 17 18  1  0
 17 20  1  0
 17 70  1  1
 18 19  1  0
 19 71  1  0
 19 72  1  0
 19 73  1  0
 20 26  1  6
 20 21  1  0
 20 43  1  0
 21 22  1  0
 21 24  1  0
 21 74  1  1
 22 23  1  0
 23 75  1  0
 23 76  1  0
 23 77  1  0
 24 25  1  0
 24 39  1  0
 24 78  1  6
 25 26  1  0
 25 79  1  0
 25 80  1  0
 26 27  1  0
 26 81  1  1
 27 34  1  0
 27 28  1  0
 28 29  2  0
 28 30  1  0
 30 36  1  0
 30 31  1  0
 30 82  1  1
 31 32  1  0
 31 36  1  0
 31 83  1  1
 32 33  1  0
 32 84  1  0
 32 85  1  0
 33 34  1  0
 33 86  1  1
 34 35  2  0
 36 37  1  0
 36 38  1  0
 37 87  1  0
 37 88  1  0
 37 89  1  0
 38 90  1  0
 38 91  1  0
 38 92  1  0
 39 40  1  0
 39 41  1  0
 39 93  1  6
 40 94  1  0
 41 42  1  0
 41 95  1  6
 42 96  1  0
 43 56  1  0
 43 44  1  0
 43 97  1  1
 44 45  1  0
 44 98  1  0
 44 99  1  0
 45 46  1  0
 45100  1  0
 45101  1  0
 46 47  1  0
 46102  1  1
 47 52  1  0
 47 55  1  0
 47 48  1  1
 48 49  1  0
 48103  1  0
 48104  1  0
 49 50  1  0
 49 51  1  0
 49105  1  6
 50106  1  0
 50107  1  0
 50108  1  0
 51 52  1  0
 51 53  1  0
 51109  1  6
 52110  1  0
 52111  1  0
 53 54  1  6
 53 55  1  0
 56 53  1  1
 54112  1  0
 54113  1  0
 54114  1  0
 55115  1  0
 55116  1  0
M  END
>  <i_m_ct_stereo_status>  (12) 
1

>  <s_m_source_file>  (12) 
/var/tmp/pbs.5076255.sched01/tmpn440o9cr/0yczfkg0t.sdf

>  <i_m_source_file_index>  (12) 
7

>  <i_lp_mmshare_version>  (12) 
48012

>  <i_f3d_flags>  (12) 
0

>  <s_epik_input>  (12) 
W0NIM11PYyhbY0hdW2NIXTEpW2NIXWMyYzFPW0NASF0zW0NIMl1bQ0gyXU9bQ0BASF0oW0NAXTQ1W0NAQF0yMzYpW0NAQF03OFtDQEBIXTlbQ0gyXVtDQEhdMVtDQEhdKEMxKFtDSDNdKVtDSDNdKUMoPU8pTihDOT1PKVtDQEhdMVtDQEBdKFtDQEBIXShPNylPW0NIM10pKFtDQEBIXShPW0NIM10pW0NASF0oW0NIMl0xKVtDQEBIXShbT0hdKVtDQEhdOFtPSF0pW0NASF00W0NIMl1bQ0gyXVtDQEBIXTZbQ0BdMTJbQ0gyXVtDQEBIXShbQ0gzXSlbQ0BASF0oW0NIMl0xKVtDQEBdNShbQ0gzXSlbQ0gyXTI=

>  <s_epik_cmdline>  (12) 
J2VwaWtfcHl0aG9uJywgJy1waHQnLCAnMi4wJywgJy1waCcsICc3LjAnLCAnLXRuJywgJzgnLCAnLW1hJywgJzIwMCcsICctaW1hZScsICc8aW5maWxlLm1hZT4nLCAnLW9tYWUnLCAnPG91dGZpbGUubWFlPic=

>  <r_lp_tautomer_probability>  (12) 
1

>  <r_epik_Ionization_Penalty>  (12) 
2.22383e-07

>  <r_epik_Ionization_Penalty_Charging>  (12) 
0

>  <r_epik_Ionization_Penalty_Neutral>  (12) 
2.22383e-07

>  <r_epik_State_Penalty>  (12) 
-0

>  <r_epik_Charging_Adjusted_Penalty>  (12) 
0

>  <i_epik_Tot_Q>  (12) 
0

>  <i_epik_Tot_abs_Q>  (12) 
0

>  <s_epik_Chemistry_Notes>  (12) 
This compound contains an acetal/aminal-like group ( X-CH(R)-Y where X, Y are N, S, or O) that may be acid/base labile, releasing an aldehyde.

>  <s_lp_Force_Field>  (12) 
OPLS3e

>  <r_lp_Energy>  (12) 
763.906

>  <b_lp_Chiralities_Consistent>  (12) 
1

>  <s_lp_Variant>  (12) 
6:0-1

>  <s_i_glide_gridfile>  (12) 
pfpi4k_grid

>  <i_i_glide_lignum>  (12) 
7

>  <i_i_glide_rotatable_bonds>  (12) 
5

>  <r_i_docking_score>  (12) 
-1.47376

>  <r_i_glide_ligand_efficiency>  (12) 
-0.0258554

>  <r_i_glide_ligand_efficiency_sa>  (12) 
-0.0995045

>  <r_i_glide_ligand_efficiency_ln>  (12) 
-0.292235

>  <r_i_glide_gscore>  (12) 
-1.47376

>  <r_i_glide_lipo>  (12) 
-0.332662

>  <r_i_glide_hbond>  (12) 
-0.188761

>  <r_i_glide_metal>  (12) 
-0

>  <r_i_glide_rewards>  (12) 
0

>  <r_i_glide_evdw>  (12) 
-25.8005

>  <r_i_glide_ecoul>  (12) 
-0.79642

>  <r_i_glide_erotb>  (12) 
0

>  <r_i_glide_esite>  (12) 
-0.0225822

>  <r_i_glide_emodel>  (12) 
-21.034

>  <r_i_glide_energy>  (12) 
-26.5969

>  <r_i_glide_einternal>  (12) 
5.85017

>  <r_i_glide_intrahb_reward>  (12) 
-0

>  <i_i_glide_confnum>  (12) 
1

>  <i_i_glide_posenum>  (12) 
15

>  <r_i_glide_eff_state_penalty>  (12) 
0

>  <ligand_id>  (12) 
6

>  <original_smiles>  (12) 
COc1ccc2c(c1)C13C(CCOC4C56OC(OC)C7(C(OC)C(CC7N7C(=O)C8C(CC5C7=O)C8(C)C)C(O)C6O)C5CCC1C16CC(C)C(C1)C(C)(C6)C453)O2

>  <smiles>  (12) 
[H]OC1([H])C([H])(O[H])C23OC([H])(OC([H])([H])[H])C4(C([H])(OC([H])([H])[H])C1([H])C([H])([H])C4([H])N1C(=O)C2([H])C([H])([H])C2([H])C([H])(C1=O)C2(C([H])([H])[H])C([H])([H])[H])C1([H])C([H])([H])C([H])([H])C2([H])C45c6c([H])c(OC([H])([H])[H])c([H])c([H])c6OC4([H])C([H])([H])C([H])([H])OC3([H])C15C1(C([H])([H])[H])C([H])([H])C23C([H])([H])C([H])(C([H])([H])[H])C1([H])C3([H])[H]

$$$$
6:0:1
     RDKit          3D

116128  0  0  1  0  0  0  0  0999 V2000
    2.6455   -9.0116    7.8270 C   0  0  0  0  0  0  0  0  0  0  0  0
    2.8489  -10.3897    7.5934 O   0  0  0  0  0  0  0  0  0  0  0  0
    3.7942  -10.8569    6.7105 C   0  0  0  0  0  0  0  0  0  0  0  0
    4.0111  -12.2577    6.5335 C   0  0  0  0  0  0  0  0  0  0  0  0
    4.9653  -12.6988    5.5869 C   0  0  0  0  0  0  0  0  0  0  0  0
    5.7688  -11.7493    4.9460 C   0  0  0  0  0  0  0  0  0  0  0  0
    5.6411  -10.3811    5.1608 C   0  0  0  0  0  0  0  0  0  0  0  0
    4.5915   -9.9333    5.9905 C   0  0  0  0  0  0  0  0  0  0  0  0
    6.7912   -9.6084    4.4634 C   0  0  2  0  0  0  0  0  0  0  0  0
    7.0919  -10.8812    3.4767 C   0  0  2  0  0  0  0  0  0  0  0  0
    6.4193  -10.9107    2.0773 C   0  0  0  0  0  0  0  0  0  0  0  0
    6.6707   -9.7547    1.0560 C   0  0  0  0  0  0  0  0  0  0  0  0
    6.1274   -8.4489    1.2645 O   0  0  0  0  0  0  0  0  0  0  0  0
    5.5515   -8.0560    2.5040 C   0  0  2  0  0  0  0  0  0  0  0  0
    4.2450   -7.0338    2.0217 C   0  0  2  0  0  0  0  0  0  0  0  0
    5.4288   -6.3704    2.4155 O   0  0  0  0  0  0  0  0  0  0  0  0
    5.6264   -5.5002    3.4200 C   0  0  1  0  0  0  0  0  0  0  0  0
    5.6605   -4.1352    3.0565 O   0  0  0  0  0  0  0  0  0  0  0  0
    6.4205   -3.6781    1.9357 C   0  0  0  0  0  0  0  0  0  0  0  0
    4.8977   -6.0529    4.7447 C   0  0  1  0  0  0  0  0  0  0  0  0
    4.5980   -4.6579    5.3381 C   0  0  1  0  0  0  0  0  0  0  0  0
    5.6418   -3.6996    5.5121 O   0  0  0  0  0  0  0  0  0  0  0  0
    6.5616   -3.9751    6.5779 C   0  0  0  0  0  0  0  0  0  0  0  0
    3.3234   -4.2744    4.3950 C   0  0  2  0  0  0  0  0  0  0  0  0
    2.4107   -5.3013    4.9603 C   0  0  0  0  0  0  0  0  0  0  0  0
    3.3390   -6.5169    5.0199 C   0  0  1  0  0  0  0  0  0  0  0  0
    2.5679   -7.7767    4.6751 N   0  0  0  0  0  0  0  0  0  0  0  0
    1.2480   -7.9019    5.0735 C   0  0  0  0  0  0  0  0  0  0  0  0
    0.7742   -7.3587    6.0443 O   0  0  0  0  0  0  0  0  0  0  0  0
    0.3399   -8.7635    4.1743 C   0  0  2  0  0  0  0  0  0  0  0  0
    0.4274   -8.5070    2.6657 C   0  0  2  0  0  0  0  0  0  0  0  0
    1.4896   -7.5448    2.0698 C   0  0  0  0  0  0  0  0  0  0  0  0
    3.0021   -7.9429    2.3812 C   0  0  2  0  0  0  0  0  0  0  0  0
    3.0151   -8.5766    3.7235 C   0  0  0  0  0  0  0  0  0  0  0  0
    3.0097   -9.8075    3.7880 O   0  0  0  0  0  0  0  0  0  0  0  0
   -0.8063   -8.1122    3.4510 C   0  0  0  0  0  0  0  0  0  0  0  0
   -2.0594   -8.9342    3.2580 C   0  0  0  0  0  0  0  0  0  0  0  0
   -1.2137   -6.6638    3.6556 C   0  0  0  0  0  0  0  0  0  0  0  0
    3.1317   -4.3997    2.7602 C   0  0  1  0  0  0  0  0  0  0  0  0
    3.3043   -3.0906    2.2288 O   0  0  0  0  0  0  0  0  0  0  0  0
    3.7151   -5.5169    1.6721 C   0  0  1  0  0  0  0  0  0  0  0  0
    4.1952   -4.9724    0.4753 O   0  0  0  0  0  0  0  0  0  0  0  0
    6.0209   -7.1315    5.1258 C   0  0  1  0  0  0  0  0  0  0  0  0
    6.2223   -7.5935    6.6067 C   0  0  0  0  0  0  0  0  0  0  0  0
    7.2538   -8.7573    6.8105 C   0  0  0  0  0  0  0  0  0  0  0  0
    7.9932   -9.3614    5.5027 C   0  0  2  0  0  0  0  0  0  0  0  0
    9.5287   -8.8975    4.9527 C   0  0  1  0  0  0  0  0  0  0  0  0
    9.9133   -8.0982    6.2500 C   0  0  0  0  0  0  0  0  0  0  0  0
    9.2978   -6.7038    6.0422 C   0  0  1  0  0  0  0  0  0  0  0  0
   10.1670   -5.5665    6.6299 C   0  0  0  0  0  0  0  0  0  0  0  0
    9.0790   -6.5941    4.4968 C   0  0  1  0  0  0  0  0  0  0  0  0
   10.2618   -7.4948    4.3868 C   0  0  0  0  0  0  0  0  0  0  0  0
    8.1252   -7.4630    3.5014 C   0  0  1  0  0  0  0  0  0  0  0  0
    8.3238   -6.8390    2.0771 C   0  0  0  0  0  0  0  0  0  0  0  0
    9.0416   -8.6585    3.5078 C   0  0  0  0  0  0  0  0  0  0  0  0
    6.5755   -8.0642    3.8727 C   0  0  1  0  0  0  0  0  0  0  0  0
    6.7147  -12.0935    4.0882 O   0  0  0  0  0  0  0  0  0  0  0  0
    1.7418   -8.8169    8.3876 H   0  0  0  0  0  0  0  0  0  0  0  0
    2.4893   -8.5386    6.9066 H   0  0  0  0  0  0  0  0  0  0  0  0
    3.5207   -8.6189    8.3429 H   0  0  0  0  0  0  0  0  0  0  0  0
    3.4665  -12.9951    7.0745 H   0  0  0  0  0  0  0  0  0  0  0  0
    5.0615  -13.7560    5.4340 H   0  0  0  0  0  0  0  0  0  0  0  0
    4.3350   -8.9204    6.0374 H   0  0  0  0  0  0  0  0  0  0  0  0
    8.1370  -11.1661    3.4290 H   0  0  0  0  0  0  0  0  0  0  0  0
    6.7689  -11.8414    1.6202 H   0  0  0  0  0  0  0  0  0  0  0  0
    5.3437  -11.0788    2.1868 H   0  0  0  0  0  0  0  0  0  0  0  0
    7.6922   -9.5226    0.7995 H   0  0  0  0  0  0  0  0  0  0  0  0
    6.2942  -10.1289    0.1066 H   0  0  0  0  0  0  0  0  0  0  0  0
    5.0957   -9.0124    2.6917 H   0  0  0  0  0  0  0  0  0  0  0  0
    6.6880   -5.4546    3.5856 H   0  0  0  0  0  0  0  0  0  0  0  0
    6.2650   -2.5979    1.8776 H   0  0  0  0  0  0  0  0  0  0  0  0
    6.1035   -4.1269    1.0108 H   0  0  0  0  0  0  0  0  0  0  0  0
    7.4826   -3.8437    2.0703 H   0  0  0  0  0  0  0  0  0  0  0  0
    4.2536   -4.7664    6.3788 H   0  0  0  0  0  0  0  0  0  0  0  0
    7.3792   -3.2534    6.5574 H   0  0  0  0  0  0  0  0  0  0  0  0
    7.0114   -4.9427    6.4710 H   0  0  0  0  0  0  0  0  0  0  0  0
    6.0790   -3.9246    7.5583 H   0  0  0  0  0  0  0  0  0  0  0  0
    2.9561   -3.3006    4.7233 H   0  0  0  0  0  0  0  0  0  0  0  0
    2.0531   -5.0180    5.9608 H   0  0  0  0  0  0  0  0  0  0  0  0
    1.5314   -5.4047    4.3459 H   0  0  0  0  0  0  0  0  0  0  0  0
    3.3906   -6.7304    6.0883 H   0  0  0  0  0  0  0  0  0  0  0  0
    0.1560   -9.7698    4.5403 H   0  0  0  0  0  0  0  0  0  0  0  0
    0.3226   -9.4244    2.0550 H   0  0  0  0  0  0  0  0  0  0  0  0
    1.3443   -7.5133    0.9933 H   0  0  0  0  0  0  0  0  0  0  0  0
    1.2782   -6.5390    2.4469 H   0  0  0  0  0  0  0  0  0  0  0  0
    3.1300   -8.7915    1.6965 H   0  0  0  0  0  0  0  0  0  0  0  0
   -2.6026   -8.6021    2.3753 H   0  0  0  0  0  0  0  0  0  0  0  0
   -2.6816   -8.8653    4.1384 H   0  0  0  0  0  0  0  0  0  0  0  0
   -1.7932   -9.9801    3.1175 H   0  0  0  0  0  0  0  0  0  0  0  0
   -1.8429   -6.5539    4.5440 H   0  0  0  0  0  0  0  0  0  0  0  0
   -1.7634   -6.3476    2.7747 H   0  0  0  0  0  0  0  0  0  0  0  0
   -0.3539   -6.0115    3.7812 H   0  0  0  0  0  0  0  0  0  0  0  0
    2.0559   -4.4395    2.6094 H   0  0  0  0  0  0  0  0  0  0  0  0
    3.0987   -3.1102    1.3283 H   0  0  0  0  0  0  0  0  0  0  0  0
    2.7913   -5.7587    1.1739 H   0  0  0  0  0  0  0  0  0  0  0  0
    3.8619   -5.5144   -0.2452 H   0  0  0  0  0  0  0  0  0  0  0  0
    6.8352   -6.4682    5.2330 H   0  0  0  0  0  0  0  0  0  0  0  0
    6.5272   -6.7578    7.2333 H   0  0  0  0  0  0  0  0  0  0  0  0
    5.3188   -7.7604    7.1822 H   0  0  0  0  0  0  0  0  0  0  0  0
    7.8474   -8.4995    7.6724 H   0  0  0  0  0  0  0  0  0  0  0  0
    6.7321   -9.5811    7.2858 H   0  0  0  0  0  0  0  0  0  0  0  0
    8.2455  -10.3673    5.8524 H   0  0  0  0  0  0  0  0  0  0  0  0
    9.6982   -8.5960    7.1898 H   0  0  0  0  0  0  0  0  0  0  0  0
   10.9894   -8.0716    6.4688 H   0  0  0  0  0  0  0  0  0  0  0  0
    8.4019   -6.5554    6.5996 H   0  0  0  0  0  0  0  0  0  0  0  0
   11.1605   -5.4636    6.1486 H   0  0  0  0  0  0  0  0  0  0  0  0
   10.3378   -5.7141    7.7158 H   0  0  0  0  0  0  0  0  0  0  0  0
    9.5980   -4.6895    6.4787 H   0  0  0  0  0  0  0  0  0  0  0  0
    9.2660   -5.5864    4.1143 H   0  0  0  0  0  0  0  0  0  0  0  0
   11.2183   -7.1251    4.7824 H   0  0  0  0  0  0  0  0  0  0  0  0
   10.7865   -7.3537    3.4313 H   0  0  0  0  0  0  0  0  0  0  0  0
    8.3625   -7.5767    1.2785 H   0  0  0  0  0  0  0  0  0  0  0  0
    9.2895   -6.3326    1.9936 H   0  0  0  0  0  0  0  0  0  0  0  0
    7.6102   -6.0935    1.7620 H   0  0  0  0  0  0  0  0  0  0  0  0
    9.7972   -8.8041    2.7471 H   0  0  0  0  0  0  0  0  0  0  0  0
    8.6217   -9.4116    2.9087 H   0  0  0  0  0  0  0  0  0  0  0  0
  1  2  1  0
  1 58  1  0
  1 59  1  0
  1 60  1  0
  2  3  1  0
  3  8  1  0
  3  4  2  0
  4  5  1  0
  4 61  1  0
  5  6  2  0
  5 62  1  0
  6 57  1  0
  6  7  1  0
  7  8  2  0
  9  7  1  1
  8 63  1  0
  9 46  1  0
  9 56  1  0
  9 10  1  0
 10 11  1  0
 10 57  1  0
 10 64  1  6
 11 12  1  0
 11 65  1  0
 11 66  1  0
 12 13  1  0
 12 67  1  0
 12 68  1  0
 13 14  1  0
 14 56  1  0
 14 15  1  0
 14 69  1  1
 15 33  1  0
 15 41  1  0
 15 16  1  6
 16 17  1  0
 17 18  1  0
 17 20  1  0
 17 70  1  1
 18 19  1  0
 19 71  1  0
 19 72  1  0
 19 73  1  0
 20 26  1  6
 20 21  1  0
 20 43  1  0
 21 22  1  0
 21 24  1  0
 21 74  1  1
 22 23  1  0
 23 75  1  0
 23 76  1  0
 23 77  1  0
 24 25  1  0
 24 39  1  0
 24 78  1  1
 25 26  1  0
 25 79  1  0
 25 80  1  0
 26 27  1  0
 26 81  1  1
 27 34  1  0
 27 28  1  0
 28 29  2  0
 28 30  1  0
 30 36  1  0
 30 31  1  0
 30 82  1  6
 31 32  1  0
 31 36  1  0
 31 83  1  6
 32 33  1  0
 32 84  1  0
 32 85  1  0
 33 34  1  0
 33 86  1  6
 34 35  2  0
 36 37  1  0
 36 38  1  0
 37 87  1  0
 37 88  1  0
 37 89  1  0
 38 90  1  0
 38 91  1  0
 38 92  1  0
 39 40  1  0
 39 41  1  0
 39 93  1  1
 40 94  1  0
 41 42  1  0
 41 95  1  6
 42 96  1  0
 43 56  1  0
 43 44  1  0
 43 97  1  1
 44 45  1  0
 44 98  1  0
 44 99  1  0
 45 46  1  0
 45100  1  0
 45101  1  0
 46 47  1  0
 46102  1  1
 47 52  1  0
 47 55  1  0
 47 48  1  6
 48 49  1  0
 48103  1  0
 48104  1  0
 49 50  1  0
 49 51  1  0
 49105  1  1
 50106  1  0
 50107  1  0
 50108  1  0
 51 52  1  0
 51 53  1  0
 51109  1  6
 52110  1  0
 52111  1  0
 53 54  1  6
 53 55  1  0
 56 53  1  6
 54112  1  0
 54113  1  0
 54114  1  0
 55115  1  0
 55116  1  0
M  END
>  <i_m_ct_stereo_status>  (13) 
1

>  <s_m_source_file>  (13) 
/var/tmp/pbs.5076255.sched01/tmpn440o9cr/0yczfkg0t.sdf

>  <i_m_source_file_index>  (13) 
7

>  <i_lp_mmshare_version>  (13) 
48012

>  <i_f3d_flags>  (13) 
0

>  <s_epik_input>  (13) 
W0NIM11PYyhbY0hdW2NIXTEpW2NIXWMyYzFPW0NASF0zW0NIMl1bQ0gyXU9bQ0BASF0oW0NAXTQ1W0NAQF0yMzYpW0NAQF03OFtDQEBIXTlbQ0gyXVtDQEhdMVtDQEhdKEMxKFtDSDNdKVtDSDNdKUMoPU8pTihDOT1PKVtDQEhdMVtDQEBdKFtDQEBIXShPNylPW0NIM10pKFtDQEBIXShPW0NIM10pW0NASF0oW0NIMl0xKVtDQEBIXShbT0hdKVtDQEhdOFtPSF0pW0NASF00W0NIMl1bQ0gyXVtDQEBIXTZbQ0BdMTJbQ0gyXVtDQEBIXShbQ0gzXSlbQ0BASF0oW0NIMl0xKVtDQEBdNShbQ0gzXSlbQ0gyXTI=

>  <s_epik_cmdline>  (13) 
J2VwaWtfcHl0aG9uJywgJy1waHQnLCAnMi4wJywgJy1waCcsICc3LjAnLCAnLXRuJywgJzgnLCAnLW1hJywgJzIwMCcsICctaW1hZScsICc8aW5maWxlLm1hZT4nLCAnLW9tYWUnLCAnPG91dGZpbGUubWFlPic=

>  <r_lp_tautomer_probability>  (13) 
1

>  <r_epik_Ionization_Penalty>  (13) 
2.22383e-07

>  <r_epik_Ionization_Penalty_Charging>  (13) 
0

>  <r_epik_Ionization_Penalty_Neutral>  (13) 
2.22383e-07

>  <r_epik_State_Penalty>  (13) 
-0

>  <r_epik_Charging_Adjusted_Penalty>  (13) 
0

>  <i_epik_Tot_Q>  (13) 
0

>  <i_epik_Tot_abs_Q>  (13) 
0

>  <s_epik_Chemistry_Notes>  (13) 
This compound contains an acetal/aminal-like group ( X-CH(R)-Y where X, Y are N, S, or O) that may be acid/base labile, releasing an aldehyde.

>  <s_lp_Force_Field>  (13) 
OPLS3e

>  <r_lp_Energy>  (13) 
763.906

>  <b_lp_Chiralities_Consistent>  (13) 
1

>  <s_lp_Variant>  (13) 
6:0-1

>  <s_i_glide_gridfile>  (13) 
pfpi4k_grid

>  <i_i_glide_lignum>  (13) 
7

>  <i_i_glide_rotatable_bonds>  (13) 
5

>  <r_i_docking_score>  (13) 
0.0687608

>  <r_i_glide_ligand_efficiency>  (13) 
0.00120633

>  <r_i_glide_ligand_efficiency_sa>  (13) 
0.00464256

>  <r_i_glide_ligand_efficiency_ln>  (13) 
0.0136348

>  <r_i_glide_gscore>  (13) 
0.0687608

>  <r_i_glide_lipo>  (13) 
-0.166532

>  <r_i_glide_hbond>  (13) 
0

>  <r_i_glide_metal>  (13) 
-0

>  <r_i_glide_rewards>  (13) 
-0.00443369

>  <r_i_glide_evdw>  (13) 
-9.77662

>  <r_i_glide_ecoul>  (13) 
0.0784935

>  <r_i_glide_erotb>  (13) 
0

>  <r_i_glide_esite>  (13) 
-0.0155313

>  <r_i_glide_emodel>  (13) 
-0.172307

>  <r_i_glide_energy>  (13) 
-9.69812

>  <r_i_glide_einternal>  (13) 
7.42215

>  <r_i_glide_intrahb_reward>  (13) 
-0

>  <i_i_glide_confnum>  (13) 
2

>  <i_i_glide_posenum>  (13) 
9

>  <r_i_glide_eff_state_penalty>  (13) 
0

>  <ligand_id>  (13) 
6

>  <original_smiles>  (13) 
COc1ccc2c(c1)C13C(CCOC4C56OC(OC)C7(C(OC)C(CC7N7C(=O)C8C(CC5C7=O)C8(C)C)C(O)C6O)C5CCC1C16CC(C)C(C1)C(C)(C6)C453)O2

>  <smiles>  (13) 
[H]OC1([H])C([H])(O[H])C23OC([H])(OC([H])([H])[H])C4(C([H])(OC([H])([H])[H])C1([H])C([H])([H])C4([H])N1C(=O)C2([H])C([H])([H])C2([H])C([H])(C1=O)C2(C([H])([H])[H])C([H])([H])[H])C1([H])C([H])([H])C([H])([H])C2([H])C45c6c([H])c(OC([H])([H])[H])c([H])c([H])c6OC4([H])C([H])([H])C([H])([H])OC3([H])C15C1(C([H])([H])[H])C([H])([H])C23C([H])([H])C([H])(C([H])([H])[H])C1([H])C3([H])[H]

$$$$
7:0:0
     RDKit          3D

 18 20  0  0  1  0  0  0  0  0999 V2000
    3.3327   -1.0630   -3.7252 C   0  0  0  0  0  0  0  0  0  0  0  0
    2.6174   -2.2567   -3.5643 C   0  0  0  0  0  0  0  0  0  0  0  0
    2.8024   -3.0459   -2.4160 C   0  0  0  0  0  0  0  0  0  0  0  0
    3.7099   -2.6801   -1.3889 C   0  0  0  0  0  0  0  0  0  0  0  0
    4.4268   -1.4589   -1.5710 C   0  0  0  0  0  0  0  0  0  0  0  0
    4.2256   -0.6694   -2.7196 C   0  0  0  0  0  0  0  0  0  0  0  0
    5.3173   -1.0663   -0.6140 N   0  0  0  0  0  0  0  0  0  0  0  0
    5.5357   -1.7886    0.4997 N   0  0  0  0  0  0  0  0  0  0  0  0
    4.8468   -2.9472    0.6741 C   0  0  0  0  0  0  0  0  0  0  0  0
    4.8842   -3.8331    1.6788 N   0  0  0  0  0  0  0  0  0  0  0  0
    3.9605   -4.8589    1.3347 N   0  0  0  0  0  0  0  0  0  0  0  0
    3.4311   -4.5262    0.1496 C   0  0  0  0  0  0  0  0  0  0  0  0
    3.9762   -3.3780   -0.2235 N   0  0  0  0  0  0  0  0  0  0  0  0
    3.1813   -0.4412   -4.5951 H   0  0  0  0  0  0  0  0  0  0  0  0
    1.9053   -2.5643   -4.3153 H   0  0  0  0  0  0  0  0  0  0  0  0
    2.2157   -3.9475   -2.3254 H   0  0  0  0  0  0  0  0  0  0  0  0
    4.7669    0.2572   -2.8187 H   0  0  0  0  0  0  0  0  0  0  0  0
    2.6916   -5.1018   -0.3864 H   0  0  0  0  0  0  0  0  0  0  0  0
  1  6  2  0
  1  2  1  0
  1 14  1  0
  2  3  2  0
  2 15  1  0
  3  4  1  0
  3 16  1  0
  4 13  1  0
  4  5  2  0
  5  6  1  0
  5  7  1  0
  6 17  1  0
  7  8  2  0
  8  9  1  0
  9 13  1  0
  9 10  2  0
 10 11  1  0
 11 12  2  0
 12 13  1  0
 12 18  1  0
M  END
>  <i_m_ct_stereo_status>  (14) 
1

>  <s_m_source_file>  (14) 
/var/tmp/pbs.5076255.sched01/tmpn440o9cr/0yczfkg0t.sdf

>  <i_m_source_file_index>  (14) 
8

>  <i_lp_mmshare_version>  (14) 
48012

>  <i_f3d_flags>  (14) 
0

>  <s_epik_input>  (14) 
W2NIXTFbY0hdW2NIXVtjSF1jKGMxMilubmMzbjJbY0hdbm4z

>  <s_epik_cmdline>  (14) 
J2VwaWtfcHl0aG9uJywgJy1waHQnLCAnMi4wJywgJy1waCcsICc3LjAnLCAnLXRuJywgJzgnLCAnLW1hJywgJzIwMCcsICctaW1hZScsICc8aW5maWxlLm1hZT4nLCAnLW9tYWUnLCAnPG91dGZpbGUubWFlPic=

>  <r_lp_tautomer_probability>  (14) 
1

>  <r_epik_Ionization_Penalty>  (14) 
1.05086e-09

>  <r_epik_Ionization_Penalty_Charging>  (14) 
0

>  <r_epik_Ionization_Penalty_Neutral>  (14) 
1.05086e-09

>  <r_epik_State_Penalty>  (14) 
-0

>  <r_epik_Charging_Adjusted_Penalty>  (14) 
0

>  <i_epik_Tot_Q>  (14) 
0

>  <i_epik_Tot_abs_Q>  (14) 
0

>  <s_lp_Force_Field>  (14) 
OPLS3e

>  <r_lp_Energy>  (14) 
25.5419

>  <b_lp_Chiralities_Consistent>  (14) 
1

>  <s_lp_Variant>  (14) 
7:0-1

>  <s_i_glide_gridfile>  (14) 
pfpi4k_grid

>  <i_i_glide_lignum>  (14) 
8

>  <i_i_glide_rotatable_bonds>  (14) 
0

>  <r_i_docking_score>  (14) 
-4.29672

>  <r_i_glide_ligand_efficiency>  (14) 
-0.330517

>  <r_i_glide_ligand_efficiency_sa>  (14) 
-0.777156

>  <r_i_glide_ligand_efficiency_ln>  (14) 
-1.20527

>  <r_i_glide_gscore>  (14) 
-4.29672

>  <r_i_glide_lipo>  (14) 
-0.556861

>  <r_i_glide_hbond>  (14) 
0

>  <r_i_glide_metal>  (14) 
-0

>  <r_i_glide_rewards>  (14) 
-2.32357

>  <r_i_glide_evdw>  (14) 
-19.8299

>  <r_i_glide_ecoul>  (14) 
-2.42528

>  <r_i_glide_erotb>  (14) 
0

>  <r_i_glide_esite>  (14) 
-0.0610017

>  <r_i_glide_emodel>  (14) 
-28.5167

>  <r_i_glide_energy>  (14) 
-22.2552

>  <r_i_glide_einternal>  (14) 
0

>  <r_i_glide_intrahb_reward>  (14) 
-0

>  <i_i_glide_confnum>  (14) 
1

>  <i_i_glide_posenum>  (14) 
2

>  <r_i_glide_eff_state_penalty>  (14) 
0

>  <ligand_id>  (14) 
7

>  <original_smiles>  (14) 
c1ccc2c(c1)nnc1nncn12

>  <smiles>  (14) 
[H]c1c([H])c([H])c2c(nnc3nnc([H])n32)c1[H]

$$$$
7:0:1
     RDKit          3D

 18 20  0  0  1  0  0  0  0  0999 V2000
    3.8070   -1.1176   -3.7616 C   0  0  0  0  0  0  0  0  0  0  0  0
    3.0234   -2.2780   -3.7976 C   0  0  0  0  0  0  0  0  0  0  0  0
    2.8312   -3.0398   -2.6305 C   0  0  0  0  0  0  0  0  0  0  0  0
    3.4176   -2.6843   -1.3907 C   0  0  0  0  0  0  0  0  0  0  0  0
    4.2141   -1.5000   -1.3757 C   0  0  0  0  0  0  0  0  0  0  0  0
    4.3961   -0.7391   -2.5472 C   0  0  0  0  0  0  0  0  0  0  0  0
    4.8060   -1.1137   -0.2091 N   0  0  0  0  0  0  0  0  0  0  0  0
    4.6555   -1.8122    0.9328 N   0  0  0  0  0  0  0  0  0  0  0  0
    3.8940   -2.9362    0.9163 C   0  0  0  0  0  0  0  0  0  0  0  0
    3.5939   -3.7937    1.9026 N   0  0  0  0  0  0  0  0  0  0  0  0
    2.7626   -4.7922    1.3203 N   0  0  0  0  0  0  0  0  0  0  0  0
    2.6242   -4.4735    0.0266 C   0  0  0  0  0  0  0  0  0  0  0  0
    3.3043   -3.3597   -0.1869 N   0  0  0  0  0  0  0  0  0  0  0  0
    3.9500   -0.5189   -4.6483 H   0  0  0  0  0  0  0  0  0  0  0  0
    2.5556   -2.5880   -4.7162 H   0  0  0  0  0  0  0  0  0  0  0  0
    2.2065   -3.9167   -2.7015 H   0  0  0  0  0  0  0  0  0  0  0  0
    5.0018    0.1489   -2.5068 H   0  0  0  0  0  0  0  0  0  0  0  0
    2.0498   -5.0347   -0.6961 H   0  0  0  0  0  0  0  0  0  0  0  0
  1  6  2  0
  1  2  1  0
  1 14  1  0
  2  3  2  0
  2 15  1  0
  3  4  1  0
  3 16  1  0
  4 13  1  0
  4  5  2  0
  5  6  1  0
  5  7  1  0
  6 17  1  0
  7  8  2  0
  8  9  1  0
  9 13  1  0
  9 10  2  0
 10 11  1  0
 11 12  2  0
 12 13  1  0
 12 18  1  0
M  END
>  <i_m_ct_stereo_status>  (15) 
1

>  <s_m_source_file>  (15) 
/var/tmp/pbs.5076255.sched01/tmpn440o9cr/0yczfkg0t.sdf

>  <i_m_source_file_index>  (15) 
8

>  <i_lp_mmshare_version>  (15) 
48012

>  <i_f3d_flags>  (15) 
0

>  <s_epik_input>  (15) 
W2NIXTFbY0hdW2NIXVtjSF1jKGMxMilubmMzbjJbY0hdbm4z

>  <s_epik_cmdline>  (15) 
J2VwaWtfcHl0aG9uJywgJy1waHQnLCAnMi4wJywgJy1waCcsICc3LjAnLCAnLXRuJywgJzgnLCAnLW1hJywgJzIwMCcsICctaW1hZScsICc8aW5maWxlLm1hZT4nLCAnLW9tYWUnLCAnPG91dGZpbGUubWFlPic=

>  <r_lp_tautomer_probability>  (15) 
1

>  <r_epik_Ionization_Penalty>  (15) 
1.05086e-09

>  <r_epik_Ionization_Penalty_Charging>  (15) 
0

>  <r_epik_Ionization_Penalty_Neutral>  (15) 
1.05086e-09

>  <r_epik_State_Penalty>  (15) 
-0

>  <r_epik_Charging_Adjusted_Penalty>  (15) 
0

>  <i_epik_Tot_Q>  (15) 
0

>  <i_epik_Tot_abs_Q>  (15) 
0

>  <s_lp_Force_Field>  (15) 
OPLS3e

>  <r_lp_Energy>  (15) 
25.5419

>  <b_lp_Chiralities_Consistent>  (15) 
1

>  <s_lp_Variant>  (15) 
7:0-1

>  <s_i_glide_gridfile>  (15) 
pfpi4k_grid

>  <i_i_glide_lignum>  (15) 
8

>  <i_i_glide_rotatable_bonds>  (15) 
0

>  <r_i_docking_score>  (15) 
-3.99381

>  <r_i_glide_ligand_efficiency>  (15) 
-0.307216

>  <r_i_glide_ligand_efficiency_sa>  (15) 
-0.722369

>  <r_i_glide_ligand_efficiency_ln>  (15) 
-1.1203

>  <r_i_glide_gscore>  (15) 
-3.99381

>  <r_i_glide_lipo>  (15) 
-0.372214

>  <r_i_glide_hbond>  (15) 
0

>  <r_i_glide_metal>  (15) 
-0

>  <r_i_glide_rewards>  (15) 
-2.28551

>  <r_i_glide_evdw>  (15) 
-19.3069

>  <r_i_glide_ecoul>  (15) 
-1.94719

>  <r_i_glide_erotb>  (15) 
0

>  <r_i_glide_esite>  (15) 
-0.0786676

>  <r_i_glide_emodel>  (15) 
-27.0751

>  <r_i_glide_energy>  (15) 
-21.2541

>  <r_i_glide_einternal>  (15) 
0

>  <r_i_glide_intrahb_reward>  (15) 
-0

>  <i_i_glide_confnum>  (15) 
1

>  <i_i_glide_posenum>  (15) 
10

>  <r_i_glide_eff_state_penalty>  (15) 
0

>  <ligand_id>  (15) 
7

>  <original_smiles>  (15) 
c1ccc2c(c1)nnc1nncn12

>  <smiles>  (15) 
[H]c1c([H])c([H])c2c(nnc3nnc([H])n32)c1[H]

$$$$
7:0:2
     RDKit          3D

 18 20  0  0  1  0  0  0  0  0999 V2000
   -0.7852   -9.4620    2.8804 C   0  0  0  0  0  0  0  0  0  0  0  0
    0.3302  -10.3101    2.9020 C   0  0  0  0  0  0  0  0  0  0  0  0
    1.5924   -9.8334    2.5038 C   0  0  0  0  0  0  0  0  0  0  0  0
    1.7840   -8.4966    2.0797 C   0  0  0  0  0  0  0  0  0  0  0  0
    0.6313   -7.6524    2.0640 C   0  0  0  0  0  0  0  0  0  0  0  0
   -0.6290   -8.1355    2.4665 C   0  0  0  0  0  0  0  0  0  0  0  0
    0.7610   -6.3622    1.6468 N   0  0  0  0  0  0  0  0  0  0  0  0
    1.9447   -5.8556    1.2536 N   0  0  0  0  0  0  0  0  0  0  0  0
    3.0416   -6.6562    1.2771 C   0  0  0  0  0  0  0  0  0  0  0  0
    4.3087   -6.3971    0.9232 N   0  0  0  0  0  0  0  0  0  0  0  0
    5.0263   -7.6077    1.1237 N   0  0  0  0  0  0  0  0  0  0  0  0
    4.1509   -8.5153    1.5797 C   0  0  0  0  0  0  0  0  0  0  0  0
    2.9722   -7.9175    1.6702 N   0  0  0  0  0  0  0  0  0  0  0  0
   -1.7515   -9.8312    3.1960 H   0  0  0  0  0  0  0  0  0  0  0  0
    0.2202  -11.3339    3.2282 H   0  0  0  0  0  0  0  0  0  0  0  0
    2.4267  -10.5211    2.5246 H   0  0  0  0  0  0  0  0  0  0  0  0
   -1.4886   -7.4848    2.4507 H   0  0  0  0  0  0  0  0  0  0  0  0
    4.3848   -9.5419    1.8224 H   0  0  0  0  0  0  0  0  0  0  0  0
  1  6  2  0
  1  2  1  0
  1 14  1  0
  2  3  2  0
  2 15  1  0
  3  4  1  0
  3 16  1  0
  4 13  1  0
  4  5  2  0
  5  6  1  0
  5  7  1  0
  6 17  1  0
  7  8  2  0
  8  9  1  0
  9 13  1  0
  9 10  2  0
 10 11  1  0
 11 12  2  0
 12 13  1  0
 12 18  1  0
M  END
>  <i_m_ct_stereo_status>  (16) 
1

>  <s_m_source_file>  (16) 
/var/tmp/pbs.5076255.sched01/tmpn440o9cr/0yczfkg0t.sdf

>  <i_m_source_file_index>  (16) 
8

>  <i_lp_mmshare_version>  (16) 
48012

>  <i_f3d_flags>  (16) 
0

>  <s_epik_input>  (16) 
W2NIXTFbY0hdW2NIXVtjSF1jKGMxMilubmMzbjJbY0hdbm4z

>  <s_epik_cmdline>  (16) 
J2VwaWtfcHl0aG9uJywgJy1waHQnLCAnMi4wJywgJy1waCcsICc3LjAnLCAnLXRuJywgJzgnLCAnLW1hJywgJzIwMCcsICctaW1hZScsICc8aW5maWxlLm1hZT4nLCAnLW9tYWUnLCAnPG91dGZpbGUubWFlPic=

>  <r_lp_tautomer_probability>  (16) 
1

>  <r_epik_Ionization_Penalty>  (16) 
1.05086e-09

>  <r_epik_Ionization_Penalty_Charging>  (16) 
0

>  <r_epik_Ionization_Penalty_Neutral>  (16) 
1.05086e-09

>  <r_epik_State_Penalty>  (16) 
-0

>  <r_epik_Charging_Adjusted_Penalty>  (16) 
0

>  <i_epik_Tot_Q>  (16) 
0

>  <i_epik_Tot_abs_Q>  (16) 
0

>  <s_lp_Force_Field>  (16) 
OPLS3e

>  <r_lp_Energy>  (16) 
25.5419

>  <b_lp_Chiralities_Consistent>  (16) 
1

>  <s_lp_Variant>  (16) 
7:0-1

>  <s_i_glide_gridfile>  (16) 
pfpi4k_grid

>  <i_i_glide_lignum>  (16) 
8

>  <i_i_glide_rotatable_bonds>  (16) 
0

>  <r_i_docking_score>  (16) 
-3.82603

>  <r_i_glide_ligand_efficiency>  (16) 
-0.29431

>  <r_i_glide_ligand_efficiency_sa>  (16) 
-0.692021

>  <r_i_glide_ligand_efficiency_ln>  (16) 
-1.07323

>  <r_i_glide_gscore>  (16) 
-3.82603

>  <r_i_glide_lipo>  (16) 
-0.178033

>  <r_i_glide_hbond>  (16) 
0

>  <r_i_glide_metal>  (16) 
-0

>  <r_i_glide_rewards>  (16) 
-2.29708

>  <r_i_glide_evdw>  (16) 
-18.7979

>  <r_i_glide_ecoul>  (16) 
-1.57712

>  <r_i_glide_erotb>  (16) 
0

>  <r_i_glide_esite>  (16) 
-0.174453

>  <r_i_glide_emodel>  (16) 
-25.9511

>  <r_i_glide_energy>  (16) 
-20.375

>  <r_i_glide_einternal>  (16) 
0

>  <r_i_glide_intrahb_reward>  (16) 
-0

>  <i_i_glide_confnum>  (16) 
1

>  <i_i_glide_posenum>  (16) 
1

>  <r_i_glide_eff_state_penalty>  (16) 
0

>  <ligand_id>  (16) 
7

>  <original_smiles>  (16) 
c1ccc2c(c1)nnc1nncn12

>  <smiles>  (16) 
[H]c1c([H])c([H])c2c(nnc3nnc([H])n32)c1[H]

$$$$
9:0:0
     RDKit          3D

 40 43  0  0  1  0  0  0  0  0999 V2000
    1.1835  -10.4087    2.5625 C   0  0  0  0  0  0  0  0  0  0  0  0
    0.3478  -10.1284    3.8168 C   0  0  0  0  0  0  0  0  0  0  0  0
   -0.6790   -8.9942    3.6533 C   0  0  0  0  0  0  0  0  0  0  0  0
   -0.0606   -7.7791    3.1633 N   0  0  0  0  0  0  0  0  0  0  0  0
    0.1616   -7.4404    1.8775 C   0  0  0  0  0  0  0  0  0  0  0  0
    0.7587   -6.2713    1.6433 N   0  0  0  0  0  0  0  0  0  0  0  0
    0.9991   -5.8311    2.9339 C   0  0  0  0  0  0  0  0  0  0  0  0
    1.6219   -4.6666    3.4357 C   0  0  0  0  0  0  0  0  0  0  0  0
    2.1401   -3.7282    2.5725 O   0  0  0  0  0  0  0  0  0  0  0  0
    3.0425   -2.7285    3.0450 C   0  0  0  0  0  0  0  0  0  0  0  0
    4.3176   -2.8031    2.1889 C   0  0  0  0  0  0  0  0  0  0  0  0
    4.1143   -2.4118    0.7576 C   0  0  0  0  0  0  0  0  0  0  0  0
    3.4542   -3.1874   -0.1079 N   0  0  0  0  0  0  0  0  0  0  0  0
    3.3959   -2.5789   -1.3566 C   0  0  0  0  0  0  0  0  0  0  0  0
    2.7500   -3.1382   -2.3801 N   0  0  0  0  0  0  0  0  0  0  0  0
    2.7824   -2.4991   -3.5639 C   0  0  0  0  0  0  0  0  0  0  0  0
    3.4394   -1.2768   -3.7936 C   0  0  0  0  0  0  0  0  0  0  0  0
    4.0977   -0.6719   -2.7106 C   0  0  0  0  0  0  0  0  0  0  0  0
    4.0804   -1.3380   -1.4702 C   0  0  0  0  0  0  0  0  0  0  0  0
    4.7513   -0.8924    0.1009 S   0  0  0  0  0  0  0  0  0  0  0  0
    1.6514   -4.4755    4.7760 N   0  0  0  0  0  0  0  0  0  0  0  0
    1.1083   -5.4061    5.5746 C   0  0  0  0  0  0  0  0  0  0  0  0
    0.5090   -6.5542    5.2499 N   0  0  0  0  0  0  0  0  0  0  0  0
    0.4785   -6.7335    3.9015 C   0  0  0  0  0  0  0  0  0  0  0  0
    1.8678  -11.2422    2.7263 H   0  0  0  0  0  0  0  0  0  0  0  0
    1.7955   -9.5574    2.2718 H   0  0  0  0  0  0  0  0  0  0  0  0
    0.5283  -10.6581    1.7263 H   0  0  0  0  0  0  0  0  0  0  0  0
   -0.1726  -11.0446    4.0959 H   0  0  0  0  0  0  0  0  0  0  0  0
    1.0081   -9.8991    4.6503 H   0  0  0  0  0  0  0  0  0  0  0  0
   -1.4593   -9.2836    2.9471 H   0  0  0  0  0  0  0  0  0  0  0  0
   -1.1750   -8.7871    4.6062 H   0  0  0  0  0  0  0  0  0  0  0  0
   -0.1174   -8.0993    1.0680 H   0  0  0  0  0  0  0  0  0  0  0  0
    2.5588   -1.7572    2.9458 H   0  0  0  0  0  0  0  0  0  0  0  0
    3.3399   -2.8287    4.0887 H   0  0  0  0  0  0  0  0  0  0  0  0
    5.0801   -2.1507    2.6151 H   0  0  0  0  0  0  0  0  0  0  0  0
    4.7206   -3.8194    2.2094 H   0  0  0  0  0  0  0  0  0  0  0  0
    2.2610   -3.0027   -4.3623 H   0  0  0  0  0  0  0  0  0  0  0  0
    3.4072   -0.8062   -4.7680 H   0  0  0  0  0  0  0  0  0  0  0  0
    4.5908    0.2807   -2.8160 H   0  0  0  0  0  0  0  0  0  0  0  0
    1.1696   -5.1935    6.6286 H   0  0  0  0  0  0  0  0  0  0  0  0
  1  2  1  0
  1 25  1  0
  1 26  1  0
  1 27  1  0
  2  3  1  0
  2 28  1  0
  2 29  1  0
  3  4  1  0
  3 30  1  0
  3 31  1  0
  4 24  1  0
  4  5  1  0
  5  6  2  0
  5 32  1  0
  6  7  1  0
  7 24  2  0
  7  8  1  0
  8  9  1  0
  8 21  2  0
  9 10  1  0
 10 11  1  0
 10 33  1  0
 10 34  1  0
 11 12  1  0
 11 35  1  0
 11 36  1  0
 12 20  1  0
 12 13  2  0
 13 14  1  0
 14 19  2  0
 14 15  1  0
 15 16  2  0
 16 17  1  0
 16 37  1  0
 17 18  2  0
 17 38  1  0
 18 19  1  0
 18 39  1  0
 19 20  1  0
 21 22  1  0
 22 23  2  0
 22 40  1  0
 23 24  1  0
M  END
>  <i_m_ct_stereo_status>  (17) 
1

>  <s_m_source_file>  (17) 
/var/tmp/pbs.5076255.sched01/tmpn440o9cr/0yczfkg0t.sdf

>  <i_m_source_file_index>  (17) 
11

>  <i_lp_mmshare_version>  (17) 
48012

>  <i_f3d_flags>  (17) 
0

>  <s_epik_input>  (17) 
W0NIM11bQ0gyXVtDSDJdbihbY0hdbjEpYyhjMTIpbltjSF1uYzJPW0NIMl1bQ0gyXWMobjMpc2MoYzM0KVtjSF1bY0hdW2NIXW40

>  <s_epik_cmdline>  (17) 
J2VwaWtfcHl0aG9uJywgJy1waHQnLCAnMi4wJywgJy1waCcsICc3LjAnLCAnLXRuJywgJzgnLCAnLW1hJywgJzIwMCcsICctaW1hZScsICc8aW5maWxlLm1hZT4nLCAnLW9tYWUnLCAnPG91dGZpbGUubWFlPic=

>  <r_lp_tautomer_probability>  (17) 
1

>  <r_epik_Ionization_Penalty>  (17) 
0.0398807

>  <r_epik_Ionization_Penalty_Charging>  (17) 
0

>  <r_epik_Ionization_Penalty_Neutral>  (17) 
0.0398807

>  <r_epik_State_Penalty>  (17) 
1.92543e-06

>  <r_epik_Charging_Adjusted_Penalty>  (17) 
1.92543e-06

>  <i_epik_Tot_Q>  (17) 
0

>  <i_epik_Tot_abs_Q>  (17) 
0

>  <s_lp_Force_Field>  (17) 
OPLS3e

>  <r_lp_Energy>  (17) 
27.4477

>  <b_lp_Chiralities_Consistent>  (17) 
1

>  <s_lp_Variant>  (17) 
9:0-1

>  <s_i_glide_gridfile>  (17) 
pfpi4k_grid

>  <i_i_glide_lignum>  (17) 
11

>  <i_i_glide_rotatable_bonds>  (17) 
6

>  <r_i_docking_score>  (17) 
-3.34705

>  <r_i_glide_ligand_efficiency>  (17) 
-0.13946

>  <r_i_glide_ligand_efficiency_sa>  (17) 
-0.402273

>  <r_i_glide_ligand_efficiency_ln>  (17) 
-0.801102

>  <r_i_glide_gscore>  (17) 
-3.34705

>  <r_i_glide_lipo>  (17) 
-0.753427

>  <r_i_glide_hbond>  (17) 
-0.157437

>  <r_i_glide_metal>  (17) 
-0

>  <r_i_glide_rewards>  (17) 
-1.08816

>  <r_i_glide_evdw>  (17) 
-31.1278

>  <r_i_glide_ecoul>  (17) 
-1.69612

>  <r_i_glide_erotb>  (17) 
0.653703

>  <r_i_glide_esite>  (17) 
-0.190926

>  <r_i_glide_emodel>  (17) 
-39.0876

>  <r_i_glide_energy>  (17) 
-32.8239

>  <r_i_glide_einternal>  (17) 
2.97705

>  <r_i_glide_intrahb_reward>  (17) 
-0

>  <i_i_glide_confnum>  (17) 
1

>  <i_i_glide_posenum>  (17) 
21

>  <r_i_glide_eff_state_penalty>  (17) 
0

>  <ligand_id>  (17) 
9

>  <original_smiles>  (17) 
CCCn1cnc2c(OCCc3nc4ncccc4s3)ncnc21

>  <smiles>  (17) 
[H]c1nc(OC([H])([H])C([H])([H])c2nc3nc([H])c([H])c([H])c3s2)c2nc([H])n(C([H])([H])C([H])([H])C([H])([H])[H])c2n1

$$$$
9:0:1
     RDKit          3D

 40 43  0  0  1  0  0  0  0  0999 V2000
    2.1169  -10.2763    3.1153 C   0  0  0  0  0  0  0  0  0  0  0  0
    0.6222  -10.4998    2.8292 C   0  0  0  0  0  0  0  0  0  0  0  0
   -0.2933   -9.4193    3.4224 C   0  0  0  0  0  0  0  0  0  0  0  0
    0.1178   -8.0852    3.0147 N   0  0  0  0  0  0  0  0  0  0  0  0
   -0.1376   -7.4847    1.8347 C   0  0  0  0  0  0  0  0  0  0  0  0
    0.3454   -6.2572    1.6527 N   0  0  0  0  0  0  0  0  0  0  0  0
    1.0155   -6.0542    2.8436 C   0  0  0  0  0  0  0  0  0  0  0  0
    1.7672   -4.9636    3.3274 C   0  0  0  0  0  0  0  0  0  0  0  0
    1.9603   -3.8497    2.5407 O   0  0  0  0  0  0  0  0  0  0  0  0
    2.2614   -2.6158    3.1768 C   0  0  0  0  0  0  0  0  0  0  0  0
    2.4864   -1.5600    2.0816 C   0  0  0  0  0  0  0  0  0  0  0  0
    3.7441   -1.7914    1.3064 C   0  0  0  0  0  0  0  0  0  0  0  0
    3.7531   -2.3445    0.0858 N   0  0  0  0  0  0  0  0  0  0  0  0
    5.0573   -2.4591   -0.3847 C   0  0  0  0  0  0  0  0  0  0  0  0
    5.3409   -2.9543   -1.5928 N   0  0  0  0  0  0  0  0  0  0  0  0
    6.6457   -3.0560   -1.9342 C   0  0  0  0  0  0  0  0  0  0  0  0
    7.7236   -2.6579   -1.1186 C   0  0  0  0  0  0  0  0  0  0  0  0
    7.4220   -2.1285    0.1484 C   0  0  0  0  0  0  0  0  0  0  0  0
    6.0704   -2.0214    0.5161 C   0  0  0  0  0  0  0  0  0  0  0  0
    5.3300   -1.3922    1.9852 S   0  0  0  0  0  0  0  0  0  0  0  0
    2.2890   -5.0347    4.5790 N   0  0  0  0  0  0  0  0  0  0  0  0
    2.1012   -6.1521    5.2952 C   0  0  0  0  0  0  0  0  0  0  0  0
    1.4255   -7.2585    4.9688 N   0  0  0  0  0  0  0  0  0  0  0  0
    0.8877   -7.1669    3.7202 C   0  0  0  0  0  0  0  0  0  0  0  0
    2.7250  -11.0680    2.6744 H   0  0  0  0  0  0  0  0  0  0  0  0
    2.3021  -10.2615    4.1901 H   0  0  0  0  0  0  0  0  0  0  0  0
    2.4772   -9.3348    2.7007 H   0  0  0  0  0  0  0  0  0  0  0  0
    0.4732  -10.5442    1.7512 H   0  0  0  0  0  0  0  0  0  0  0  0
    0.3195  -11.4727    3.2132 H   0  0  0  0  0  0  0  0  0  0  0  0
   -1.3238   -9.5736    3.1043 H   0  0  0  0  0  0  0  0  0  0  0  0
   -0.2837   -9.4723    4.5111 H   0  0  0  0  0  0  0  0  0  0  0  0
   -0.7029   -7.9821    1.0633 H   0  0  0  0  0  0  0  0  0  0  0  0
    1.4140   -2.3297    3.7994 H   0  0  0  0  0  0  0  0  0  0  0  0
    3.1430   -2.6851    3.8187 H   0  0  0  0  0  0  0  0  0  0  0  0
    1.6559   -1.5735    1.3763 H   0  0  0  0  0  0  0  0  0  0  0  0
    2.5209   -0.5549    2.5108 H   0  0  0  0  0  0  0  0  0  0  0  0
    6.8293   -3.4657   -2.9107 H   0  0  0  0  0  0  0  0  0  0  0  0
    8.7454   -2.7580   -1.4605 H   0  0  0  0  0  0  0  0  0  0  0  0
    8.2029   -1.8002    0.8136 H   0  0  0  0  0  0  0  0  0  0  0  0
    2.5640   -6.1655    6.2686 H   0  0  0  0  0  0  0  0  0  0  0  0
  1  2  1  0
  1 25  1  0
  1 26  1  0
  1 27  1  0
  2  3  1  0
  2 28  1  0
  2 29  1  0
  3  4  1  0
  3 30  1  0
  3 31  1  0
  4 24  1  0
  4  5  1  0
  5  6  2  0
  5 32  1  0
  6  7  1  0
  7 24  2  0
  7  8  1  0
  8  9  1  0
  8 21  2  0
  9 10  1  0
 10 11  1  0
 10 33  1  0
 10 34  1  0
 11 12  1  0
 11 35  1  0
 11 36  1  0
 12 20  1  0
 12 13  2  0
 13 14  1  0
 14 19  2  0
 14 15  1  0
 15 16  2  0
 16 17  1  0
 16 37  1  0
 17 18  2  0
 17 38  1  0
 18 19  1  0
 18 39  1  0
 19 20  1  0
 21 22  1  0
 22 23  2  0
 22 40  1  0
 23 24  1  0
M  END
>  <i_m_ct_stereo_status>  (18) 
1

>  <s_m_source_file>  (18) 
/var/tmp/pbs.5076255.sched01/tmpn440o9cr/0yczfkg0t.sdf

>  <i_m_source_file_index>  (18) 
11

>  <i_lp_mmshare_version>  (18) 
48012

>  <i_f3d_flags>  (18) 
0

>  <s_epik_input>  (18) 
W0NIM11bQ0gyXVtDSDJdbihbY0hdbjEpYyhjMTIpbltjSF1uYzJPW0NIMl1bQ0gyXWMobjMpc2MoYzM0KVtjSF1bY0hdW2NIXW40

>  <s_epik_cmdline>  (18) 
J2VwaWtfcHl0aG9uJywgJy1waHQnLCAnMi4wJywgJy1waCcsICc3LjAnLCAnLXRuJywgJzgnLCAnLW1hJywgJzIwMCcsICctaW1hZScsICc8aW5maWxlLm1hZT4nLCAnLW9tYWUnLCAnPG91dGZpbGUubWFlPic=

>  <r_lp_tautomer_probability>  (18) 
1

>  <r_epik_Ionization_Penalty>  (18) 
0.0398807

>  <r_epik_Ionization_Penalty_Charging>  (18) 
0

>  <r_epik_Ionization_Penalty_Neutral>  (18) 
0.0398807

>  <r_epik_State_Penalty>  (18) 
1.92543e-06

>  <r_epik_Charging_Adjusted_Penalty>  (18) 
1.92543e-06

>  <i_epik_Tot_Q>  (18) 
0

>  <i_epik_Tot_abs_Q>  (18) 
0

>  <s_lp_Force_Field>  (18) 
OPLS3e

>  <r_lp_Energy>  (18) 
27.4477

>  <b_lp_Chiralities_Consistent>  (18) 
1

>  <s_lp_Variant>  (18) 
9:0-1

>  <s_i_glide_gridfile>  (18) 
pfpi4k_grid

>  <i_i_glide_lignum>  (18) 
11

>  <i_i_glide_rotatable_bonds>  (18) 
6

>  <r_i_docking_score>  (18) 
-3.34458

>  <r_i_glide_ligand_efficiency>  (18) 
-0.139358

>  <r_i_glide_ligand_efficiency_sa>  (18) 
-0.401977

>  <r_i_glide_ligand_efficiency_ln>  (18) 
-0.800512

>  <r_i_glide_gscore>  (18) 
-3.34458

>  <r_i_glide_lipo>  (18) 
-0.402406

>  <r_i_glide_hbond>  (18) 
-0.227401

>  <r_i_glide_metal>  (18) 
-0

>  <r_i_glide_rewards>  (18) 
-1.08816

>  <r_i_glide_evdw>  (18) 
-27.0354

>  <r_i_glide_ecoul>  (18) 
-5.21564

>  <r_i_glide_erotb>  (18) 
0.653703

>  <r_i_glide_esite>  (18) 
-0.146208

>  <r_i_glide_emodel>  (18) 
-38.6927

>  <r_i_glide_energy>  (18) 
-32.251

>  <r_i_glide_einternal>  (18) 
2.64826

>  <r_i_glide_intrahb_reward>  (18) 
-0

>  <i_i_glide_confnum>  (18) 
2

>  <i_i_glide_posenum>  (18) 
15

>  <r_i_glide_eff_state_penalty>  (18) 
0

>  <ligand_id>  (18) 
9

>  <original_smiles>  (18) 
CCCn1cnc2c(OCCc3nc4ncccc4s3)ncnc21

>  <smiles>  (18) 
[H]c1nc(OC([H])([H])C([H])([H])c2nc3nc([H])c([H])c([H])c3s2)c2nc([H])n(C([H])([H])C([H])([H])C([H])([H])[H])c2n1

$$$$
9:0:2
     RDKit          3D

 40 43  0  0  1  0  0  0  0  0999 V2000
    3.6520   -0.0902   -3.4354 C   0  0  0  0  0  0  0  0  0  0  0  0
    3.8190   -1.3516   -4.2900 C   0  0  0  0  0  0  0  0  0  0  0  0
    4.4198   -2.5499   -3.5366 C   0  0  0  0  0  0  0  0  0  0  0  0
    3.7782   -2.7551   -2.2508 N   0  0  0  0  0  0  0  0  0  0  0  0
    2.6434   -3.4436   -2.0101 C   0  0  0  0  0  0  0  0  0  0  0  0
    2.2186   -3.5043   -0.7516 N   0  0  0  0  0  0  0  0  0  0  0  0
    3.1673   -2.7313   -0.1116 C   0  0  0  0  0  0  0  0  0  0  0  0
    3.3066   -2.3262    1.2304 C   0  0  0  0  0  0  0  0  0  0  0  0
    2.3655   -2.6755    2.1739 O   0  0  0  0  0  0  0  0  0  0  0  0
    2.7261   -2.7035    3.5558 C   0  0  0  0  0  0  0  0  0  0  0  0
    3.2499   -4.1021    3.9408 C   0  0  0  0  0  0  0  0  0  0  0  0
    2.2095   -5.1792    3.8402 C   0  0  0  0  0  0  0  0  0  0  0  0
    1.6840   -5.5526    2.6668 N   0  0  0  0  0  0  0  0  0  0  0  0
    0.7064   -6.5213    2.8562 C   0  0  0  0  0  0  0  0  0  0  0  0
   -0.0162   -7.0027    1.8387 N   0  0  0  0  0  0  0  0  0  0  0  0
   -0.9036   -7.9833    2.1275 C   0  0  0  0  0  0  0  0  0  0  0  0
   -1.1642   -8.4755    3.4182 C   0  0  0  0  0  0  0  0  0  0  0  0
   -0.4330   -7.9399    4.4876 C   0  0  0  0  0  0  0  0  0  0  0  0
    0.5124   -6.9393    4.2033 C   0  0  0  0  0  0  0  0  0  0  0  0
    1.5782   -6.0250    5.2683 S   0  0  0  0  0  0  0  0  0  0  0  0
    4.3673   -1.5482    1.5674 N   0  0  0  0  0  0  0  0  0  0  0  0
    5.2282   -1.1731    0.6132 C   0  0  0  0  0  0  0  0  0  0  0  0
    5.2253   -1.4658   -0.6904 N   0  0  0  0  0  0  0  0  0  0  0  0
    4.1591   -2.2568   -1.0132 C   0  0  0  0  0  0  0  0  0  0  0  0
    3.2343    0.7257   -4.0245 H   0  0  0  0  0  0  0  0  0  0  0  0
    4.6079    0.2359   -3.0228 H   0  0  0  0  0  0  0  0  0  0  0  0
    2.9639   -0.2598   -2.6081 H   0  0  0  0  0  0  0  0  0  0  0  0
    2.8434   -1.6310   -4.6880 H   0  0  0  0  0  0  0  0  0  0  0  0
    4.4516   -1.1054   -5.1362 H   0  0  0  0  0  0  0  0  0  0  0  0
    4.3227   -3.4671   -4.1202 H   0  0  0  0  0  0  0  0  0  0  0  0
    5.4841   -2.3968   -3.3599 H   0  0  0  0  0  0  0  0  0  0  0  0
    2.0988   -3.9177   -2.8108 H   0  0  0  0  0  0  0  0  0  0  0  0
    3.4406   -1.9322    3.8431 H   0  0  0  0  0  0  0  0  0  0  0  0
    1.8212   -2.4887    4.1220 H   0  0  0  0  0  0  0  0  0  0  0  0
    4.0963   -4.3915    3.3169 H   0  0  0  0  0  0  0  0  0  0  0  0
    3.6127   -4.0747    4.9718 H   0  0  0  0  0  0  0  0  0  0  0  0
   -1.4338   -8.3935    1.2840 H   0  0  0  0  0  0  0  0  0  0  0  0
   -1.8942   -9.2563    3.5821 H   0  0  0  0  0  0  0  0  0  0  0  0
   -0.5948   -8.2851    5.4962 H   0  0  0  0  0  0  0  0  0  0  0  0
    6.0364   -0.5422    0.9519 H   0  0  0  0  0  0  0  0  0  0  0  0
  1  2  1  0
  1 25  1  0
  1 26  1  0
  1 27  1  0
  2  3  1  0
  2 28  1  0
  2 29  1  0
  3  4  1  0
  3 30  1  0
  3 31  1  0
  4 24  1  0
  4  5  1  0
  5  6  2  0
  5 32  1  0
  6  7  1  0
  7 24  2  0
  7  8  1  0
  8  9  1  0
  8 21  2  0
  9 10  1  0
 10 11  1  0
 10 33  1  0
 10 34  1  0
 11 12  1  0
 11 35  1  0
 11 36  1  0
 12 20  1  0
 12 13  2  0
 13 14  1  0
 14 19  2  0
 14 15  1  0
 15 16  2  0
 16 17  1  0
 16 37  1  0
 17 18  2  0
 17 38  1  0
 18 19  1  0
 18 39  1  0
 19 20  1  0
 21 22  1  0
 22 23  2  0
 22 40  1  0
 23 24  1  0
M  END
>  <i_m_ct_stereo_status>  (19) 
1

>  <s_m_source_file>  (19) 
/var/tmp/pbs.5076255.sched01/tmpn440o9cr/0yczfkg0t.sdf

>  <i_m_source_file_index>  (19) 
11

>  <i_lp_mmshare_version>  (19) 
48012

>  <i_f3d_flags>  (19) 
0

>  <s_epik_input>  (19) 
W0NIM11bQ0gyXVtDSDJdbihbY0hdbjEpYyhjMTIpbltjSF1uYzJPW0NIMl1bQ0gyXWMobjMpc2MoYzM0KVtjSF1bY0hdW2NIXW40

>  <s_epik_cmdline>  (19) 
J2VwaWtfcHl0aG9uJywgJy1waHQnLCAnMi4wJywgJy1waCcsICc3LjAnLCAnLXRuJywgJzgnLCAnLW1hJywgJzIwMCcsICctaW1hZScsICc8aW5maWxlLm1hZT4nLCAnLW9tYWUnLCAnPG91dGZpbGUubWFlPic=

>  <r_lp_tautomer_probability>  (19) 
1

>  <r_epik_Ionization_Penalty>  (19) 
0.0398807

>  <r_epik_Ionization_Penalty_Charging>  (19) 
0

>  <r_epik_Ionization_Penalty_Neutral>  (19) 
0.0398807

>  <r_epik_State_Penalty>  (19) 
1.92543e-06

>  <r_epik_Charging_Adjusted_Penalty>  (19) 
1.92543e-06

>  <i_epik_Tot_Q>  (19) 
0

>  <i_epik_Tot_abs_Q>  (19) 
0

>  <s_lp_Force_Field>  (19) 
OPLS3e

>  <r_lp_Energy>  (19) 
27.4477

>  <b_lp_Chiralities_Consistent>  (19) 
1

>  <s_lp_Variant>  (19) 
9:0-1

>  <s_i_glide_gridfile>  (19) 
pfpi4k_grid

>  <i_i_glide_lignum>  (19) 
11

>  <i_i_glide_rotatable_bonds>  (19) 
6

>  <r_i_docking_score>  (19) 
-3.15049

>  <r_i_glide_ligand_efficiency>  (19) 
-0.13127

>  <r_i_glide_ligand_efficiency_sa>  (19) 
-0.37865

>  <r_i_glide_ligand_efficiency_ln>  (19) 
-0.754057

>  <r_i_glide_gscore>  (19) 
-3.15049

>  <r_i_glide_lipo>  (19) 
-0.244824

>  <r_i_glide_hbond>  (19) 
-0.0191566

>  <r_i_glide_metal>  (19) 
-0

>  <r_i_glide_rewards>  (19) 
-1.36076

>  <r_i_glide_evdw>  (19) 
-30.4304

>  <r_i_glide_ecoul>  (19) 
-3.75256

>  <r_i_glide_erotb>  (19) 
0.653703

>  <r_i_glide_esite>  (19) 
-0.0950451

>  <r_i_glide_emodel>  (19) 
-39.7686

>  <r_i_glide_energy>  (19) 
-34.183

>  <r_i_glide_einternal>  (19) 
3.2351

>  <r_i_glide_intrahb_reward>  (19) 
-0

>  <i_i_glide_confnum>  (19) 
2

>  <i_i_glide_posenum>  (19) 
13

>  <r_i_glide_eff_state_penalty>  (19) 
0

>  <ligand_id>  (19) 
9

>  <original_smiles>  (19) 
CCCn1cnc2c(OCCc3nc4ncccc4s3)ncnc21

>  <smiles>  (19) 
[H]c1nc(OC([H])([H])C([H])([H])c2nc3nc([H])c([H])c([H])c3s2)c2nc([H])n(C([H])([H])C([H])([H])C([H])([H])[H])c2n1

$$$$
10:0:0
     RDKit          3D

 31 33  0  0  1  0  0  0  0  0999 V2000
    4.9975   -0.6624    1.3056 C   0  0  0  0  0  0  0  0  0  0  0  0
    3.4893   -0.6105    1.5966 C   0  0  2  0  0  0  0  0  0  0  0  0
    3.0178    0.7159    1.3216 O   0  0  0  0  0  0  0  0  0  0  0  0
    2.6781    1.4099    2.4880 C   0  0  1  0  0  0  0  0  0  0  0  0
    1.1816    1.5189    2.5514 N   0  0  0  0  0  0  0  0  0  0  0  0
    0.2158    0.7053    1.9907 C   0  0  0  0  0  0  0  0  0  0  0  0
   -1.0166    1.0138    2.2877 N   0  0  0  0  0  0  0  0  0  0  0  0
   -0.9030    2.2160    2.9622 C   0  0  0  0  0  0  0  0  0  0  0  0
   -1.8371    3.1496    3.4686 C   0  0  0  0  0  0  0  0  0  0  0  0
   -3.1541    2.9449    3.3523 N   0  0  0  0  0  0  0  0  0  0  0  0
   -1.3903    4.2645    4.0832 N   0  0  0  0  0  0  0  0  0  0  0  0
   -0.0620    4.4351    4.2172 C   0  0  0  0  0  0  0  0  0  0  0  0
    0.9354    3.6418    3.8116 N   0  0  0  0  0  0  0  0  0  0  0  0
    0.4700    2.5402    3.1572 C   0  0  0  0  0  0  0  0  0  0  0  0
    3.2214    0.5630    3.6512 C   0  0  1  0  0  0  0  0  0  0  0  0
    2.5017    0.6672    4.8578 O   0  0  0  0  0  0  0  0  0  0  0  0
    3.1990   -0.8537    3.0835 C   0  0  1  0  0  0  0  0  0  0  0  0
    1.9395   -1.4893    3.2035 O   0  0  0  0  0  0  0  0  0  0  0  0
   -3.8014    3.6206    3.7100 H   0  0  0  0  0  0  0  0  0  0  0  0
    5.4026   -1.6549    1.5111 H   0  0  0  0  0  0  0  0  0  0  0  0
    5.5542    0.0437    1.9206 H   0  0  0  0  0  0  0  0  0  0  0  0
    5.2146   -0.4281    0.2636 H   0  0  0  0  0  0  0  0  0  0  0  0
    2.9888   -1.3352    0.9501 H   0  0  0  0  0  0  0  0  0  0  0  0
    3.0234    2.4473    2.4654 H   0  0  0  0  0  0  0  0  0  0  0  0
    0.4243   -0.1489    1.3547 H   0  0  0  0  0  0  0  0  0  0  0  0
   -3.4565    2.0867    2.9089 H   0  0  0  0  0  0  0  0  0  0  0  0
    0.2469    5.3423    4.7133 H   0  0  0  0  0  0  0  0  0  0  0  0
    4.2575    0.8554    3.8223 H   0  0  0  0  0  0  0  0  0  0  0  0
    1.5922    0.5021    4.6670 H   0  0  0  0  0  0  0  0  0  0  0  0
    3.9188   -1.5202    3.5668 H   0  0  0  0  0  0  0  0  0  0  0  0
    1.3086   -0.9535    2.7483 H   0  0  0  0  0  0  0  0  0  0  0  0
  1  2  1  0
  1 20  1  0
  1 21  1  0
  1 22  1  0
  2 17  1  0
  2  3  1  0
  2 23  1  6
  3  4  1  0
  4 15  1  0
  4 24  1  6
  4  5  1  0
  5  6  1  0
  5 14  1  0
  6  7  2  0
  6 25  1  0
  7  8  1  0
  8  9  1  0
  8 14  2  0
  9 11  2  0
  9 10  1  0
 10 26  1  0
 10 19  1  0
 11 12  1  0
 12 27  1  0
 12 13  2  0
 13 14  1  0
 15 16  1  0
 15 17  1  0
 15 28  1  1
 16 29  1  0
 17 18  1  0
 17 30  1  1
 18 31  1  0
M  END
>  <i_m_ct_stereo_status>  (20) 
1

>  <s_m_source_file>  (20) 
/var/tmp/pbs.5076255.sched01/tmpn440o9cr/0yczfkg0t.sdf

>  <i_m_source_file_index>  (20) 
12

>  <i_lp_mmshare_version>  (20) 
48012

>  <i_f3d_flags>  (20) 
0

>  <s_epik_input>  (20) 
W0NIM11bQ0BASF0xT1tDQEhdKFtDQEBIXShbT0hdKVtDQEhdMVtPSF0pbihbY0hdbjIpYyhjMjMpbltjSF1bbkhdY1wzPU5cW0hd

>  <s_epik_cmdline>  (20) 
J2VwaWtfcHl0aG9uJywgJy1waHQnLCAnMi4wJywgJy1waCcsICc3LjAnLCAnLXRuJywgJzgnLCAnLW1hJywgJzIwMCcsICctaW1hZScsICc8aW5maWxlLm1hZT4nLCAnLW9tYWUnLCAnPG91dGZpbGUubWFlPic=

>  <r_lp_tautomer_probability>  (20) 
1

>  <r_epik_Ionization_Penalty>  (20) 
0.000431048

>  <r_epik_Ionization_Penalty_Charging>  (20) 
0

>  <r_epik_Ionization_Penalty_Neutral>  (20) 
0.000431048

>  <r_epik_State_Penalty>  (20) 
-0

>  <r_epik_Charging_Adjusted_Penalty>  (20) 
0

>  <i_epik_Tot_Q>  (20) 
0

>  <i_epik_Tot_abs_Q>  (20) 
0

>  <s_epik_Chemistry_Notes>  (20) 
This compound contains an acetal/aminal-like group ( X-CH(R)-Y where X, Y are N, S, or O) that may be acid/base labile, releasing an aldehyde.

>  <s_lp_Force_Field>  (20) 
OPLS3e

>  <r_lp_Energy>  (20) 
16.694

>  <b_lp_Chiralities_Consistent>  (20) 
1

>  <s_lp_Variant>  (20) 
10:0-1

>  <s_i_glide_gridfile>  (20) 
pfpi4k_grid

>  <i_i_glide_lignum>  (20) 
12

>  <i_i_glide_rotatable_bonds>  (20) 
3

>  <r_i_docking_score>  (20) 
-4.03304

>  <r_i_glide_ligand_efficiency>  (20) 
-0.224058

>  <r_i_glide_ligand_efficiency_sa>  (20) 
-0.587197

>  <r_i_glide_ligand_efficiency_ln>  (20) 
-1.03667

>  <r_i_glide_gscore>  (20) 
-4.03304

>  <r_i_glide_lipo>  (20) 
-0.145862

>  <r_i_glide_hbond>  (20) 
-0.356885

>  <r_i_glide_metal>  (20) 
-0

>  <r_i_glide_rewards>  (20) 
-1.6996

>  <r_i_glide_evdw>  (20) 
-22.2394

>  <r_i_glide_ecoul>  (20) 
-4.59326

>  <r_i_glide_erotb>  (20) 
0.277631

>  <r_i_glide_esite>  (20) 
-0.307366

>  <r_i_glide_emodel>  (20) 
-34.6918

>  <r_i_glide_energy>  (20) 
-26.8326

>  <r_i_glide_einternal>  (20) 
0.275103

>  <r_i_glide_intrahb_reward>  (20) 
-0

>  <i_i_glide_confnum>  (20) 
6

>  <i_i_glide_posenum>  (20) 
3

>  <r_i_glide_eff_state_penalty>  (20) 
0

>  <ligand_id>  (20) 
10

>  <original_smiles>  (20) 
CC1OC(n2cnc3c(=N)[nH]cnc32)C(O)C1O

>  <smiles>  (20) 
[H]OC1([H])C([H])(n2c([H])nc3c(N([H])[H])nc([H])nc32)OC([H])(C([H])([H])[H])C1([H])O[H]

$$$$
10:0:1
     RDKit          3D

 31 33  0  0  1  0  0  0  0  0999 V2000
    4.3426   -0.3054    1.1736 C   0  0  0  0  0  0  0  0  0  0  0  0
    3.8347   -1.6203    0.5869 C   0  0  2  0  0  0  0  0  0  0  0  0
    4.4583   -2.6924    1.2964 O   0  0  0  0  0  0  0  0  0  0  0  0
    4.7523   -3.7408    0.4127 C   0  0  1  0  0  0  0  0  0  0  0  0
    4.1852   -5.0484    0.8700 N   0  0  0  0  0  0  0  0  0  0  0  0
    4.5733   -6.2977    0.4400 C   0  0  0  0  0  0  0  0  0  0  0  0
    3.8775   -7.3019    0.9076 N   0  0  0  0  0  0  0  0  0  0  0  0
    2.9328   -6.6847    1.7144 C   0  0  0  0  0  0  0  0  0  0  0  0
    1.8478   -7.1378    2.5135 C   0  0  0  0  0  0  0  0  0  0  0  0
    1.5462   -8.4354    2.6247 N   0  0  0  0  0  0  0  0  0  0  0  0
    1.0923   -6.2435    3.1910 N   0  0  0  0  0  0  0  0  0  0  0  0
    1.3973   -4.9414    3.1116 C   0  0  0  0  0  0  0  0  0  0  0  0
    2.3618   -4.3634    2.3865 N   0  0  0  0  0  0  0  0  0  0  0  0
    3.1155   -5.2719    1.7110 C   0  0  0  0  0  0  0  0  0  0  0  0
    4.1989   -3.3588   -0.9701 C   0  0  1  0  0  0  0  0  0  0  0  0
    2.8834   -3.8513   -1.2225 O   0  0  0  0  0  0  0  0  0  0  0  0
    4.2531   -1.8482   -0.8641 C   0  0  1  0  0  0  0  0  0  0  0  0
    3.4147   -1.2097   -1.8009 O   0  0  0  0  0  0  0  0  0  0  0  0
    0.7934   -8.7322    3.2246 H   0  0  0  0  0  0  0  0  0  0  0  0
    3.9394    0.5409    0.6193 H   0  0  0  0  0  0  0  0  0  0  0  0
    5.4324   -0.2600    1.1219 H   0  0  0  0  0  0  0  0  0  0  0  0
    4.0483   -0.2068    2.2207 H   0  0  0  0  0  0  0  0  0  0  0  0
    2.7479   -1.7071    0.6822 H   0  0  0  0  0  0  0  0  0  0  0  0
    5.8344   -3.8810    0.4517 H   0  0  0  0  0  0  0  0  0  0  0  0
    5.3627   -6.4485   -0.2892 H   0  0  0  0  0  0  0  0  0  0  0  0
    2.1140   -9.0923    2.1221 H   0  0  0  0  0  0  0  0  0  0  0  0
    0.7737   -4.2568    3.6631 H   0  0  0  0  0  0  0  0  0  0  0  0
    4.8726   -3.7469   -1.7271 H   0  0  0  0  0  0  0  0  0  0  0  0
    2.9502   -4.7386   -1.5869 H   0  0  0  0  0  0  0  0  0  0  0  0
    5.2848   -1.5246   -1.0058 H   0  0  0  0  0  0  0  0  0  0  0  0
    2.5112   -1.3524   -1.5205 H   0  0  0  0  0  0  0  0  0  0  0  0
  1  2  1  0
  1 20  1  0
  1 21  1  0
  1 22  1  0
  2 17  1  0
  2  3  1  0
  2 23  1  6
  3  4  1  0
  4 15  1  0
  4 24  1  6
  4  5  1  0
  5  6  1  0
  5 14  1  0
  6  7  2  0
  6 25  1  0
  7  8  1  0
  8  9  1  0
  8 14  2  0
  9 11  2  0
  9 10  1  0
 10 26  1  0
 10 19  1  0
 11 12  1  0
 12 27  1  0
 12 13  2  0
 13 14  1  0
 15 16  1  0
 15 17  1  0
 15 28  1  6
 16 29  1  0
 17 18  1  0
 17 30  1  1
 18 31  1  0
M  END
>  <i_m_ct_stereo_status>  (21) 
1

>  <s_m_source_file>  (21) 
/var/tmp/pbs.5076255.sched01/tmpn440o9cr/0yczfkg0t.sdf

>  <i_m_source_file_index>  (21) 
12

>  <i_lp_mmshare_version>  (21) 
48012

>  <i_f3d_flags>  (21) 
0

>  <s_epik_input>  (21) 
W0NIM11bQ0BASF0xT1tDQEhdKFtDQEBIXShbT0hdKVtDQEhdMVtPSF0pbihbY0hdbjIpYyhjMjMpbltjSF1bbkhdY1wzPU5cW0hd

>  <s_epik_cmdline>  (21) 
J2VwaWtfcHl0aG9uJywgJy1waHQnLCAnMi4wJywgJy1waCcsICc3LjAnLCAnLXRuJywgJzgnLCAnLW1hJywgJzIwMCcsICctaW1hZScsICc8aW5maWxlLm1hZT4nLCAnLW9tYWUnLCAnPG91dGZpbGUubWFlPic=

>  <r_lp_tautomer_probability>  (21) 
1

>  <r_epik_Ionization_Penalty>  (21) 
0.000431048

>  <r_epik_Ionization_Penalty_Charging>  (21) 
0

>  <r_epik_Ionization_Penalty_Neutral>  (21) 
0.000431048

>  <r_epik_State_Penalty>  (21) 
-0

>  <r_epik_Charging_Adjusted_Penalty>  (21) 
0

>  <i_epik_Tot_Q>  (21) 
0

>  <i_epik_Tot_abs_Q>  (21) 
0

>  <s_epik_Chemistry_Notes>  (21) 
This compound contains an acetal/aminal-like group ( X-CH(R)-Y where X, Y are N, S, or O) that may be acid/base labile, releasing an aldehyde.

>  <s_lp_Force_Field>  (21) 
OPLS3e

>  <r_lp_Energy>  (21) 
16.694

>  <b_lp_Chiralities_Consistent>  (21) 
1

>  <s_lp_Variant>  (21) 
10:0-1

>  <s_i_glide_gridfile>  (21) 
pfpi4k_grid

>  <i_i_glide_lignum>  (21) 
12

>  <i_i_glide_rotatable_bonds>  (21) 
3

>  <r_i_docking_score>  (21) 
-3.98707

>  <r_i_glide_ligand_efficiency>  (21) 
-0.221504

>  <r_i_glide_ligand_efficiency_sa>  (21) 
-0.580505

>  <r_i_glide_ligand_efficiency_ln>  (21) 
-1.02486

>  <r_i_glide_gscore>  (21) 
-3.98707

>  <r_i_glide_lipo>  (21) 
-0.157707

>  <r_i_glide_hbond>  (21) 
0

>  <r_i_glide_metal>  (21) 
-0

>  <r_i_glide_rewards>  (21) 
-1.99195

>  <r_i_glide_evdw>  (21) 
-18.7628

>  <r_i_glide_ecoul>  (21) 
-7.6081

>  <r_i_glide_erotb>  (21) 
0.277631

>  <r_i_glide_esite>  (21) 
-0.035698

>  <r_i_glide_emodel>  (21) 
-33.2965

>  <r_i_glide_energy>  (21) 
-26.3709

>  <r_i_glide_einternal>  (21) 
1.91407

>  <r_i_glide_intrahb_reward>  (21) 
-0

>  <i_i_glide_confnum>  (21) 
2

>  <i_i_glide_posenum>  (21) 
1

>  <r_i_glide_eff_state_penalty>  (21) 
0

>  <ligand_id>  (21) 
10

>  <original_smiles>  (21) 
CC1OC(n2cnc3c(=N)[nH]cnc32)C(O)C1O

>  <smiles>  (21) 
[H]OC1([H])C([H])(n2c([H])nc3c(N([H])[H])nc([H])nc32)OC([H])(C([H])([H])[H])C1([H])O[H]

$$$$
10:0:2
     RDKit          3D

 31 33  0  0  1  0  0  0  0  0999 V2000
    3.7137    0.0531   -4.0889 C   0  0  0  0  0  0  0  0  0  0  0  0
    3.2183   -0.9735   -3.0581 C   0  0  2  0  0  0  0  0  0  0  0  0
    4.1318   -0.9972   -1.9427 O   0  0  0  0  0  0  0  0  0  0  0  0
    4.8375   -2.1917   -1.8837 C   0  0  1  0  0  0  0  0  0  0  0  0
    4.3012   -3.0275   -0.7494 N   0  0  0  0  0  0  0  0  0  0  0  0
    3.0128   -3.1615   -0.2682 C   0  0  0  0  0  0  0  0  0  0  0  0
    2.8488   -4.0282    0.6875 N   0  0  0  0  0  0  0  0  0  0  0  0
    4.1279   -4.4651    0.9634 C   0  0  0  0  0  0  0  0  0  0  0  0
    4.6768   -5.3475    1.9166 C   0  0  0  0  0  0  0  0  0  0  0  0
    3.9167   -5.9610    2.8239 N   0  0  0  0  0  0  0  0  0  0  0  0
    6.0069   -5.5520    1.9269 N   0  0  0  0  0  0  0  0  0  0  0  0
    6.7715   -4.9207    1.0221 C   0  0  0  0  0  0  0  0  0  0  0  0
    6.3981   -4.0601    0.0715 N   0  0  0  0  0  0  0  0  0  0  0  0
    5.0519   -3.8466    0.0696 C   0  0  0  0  0  0  0  0  0  0  0  0
    4.6050   -2.8576   -3.2398 C   0  0  1  0  0  0  0  0  0  0  0  0
    4.7106   -4.2555   -3.3167 O   0  0  0  0  0  0  0  0  0  0  0  0
    3.2362   -2.3800   -3.6781 C   0  0  1  0  0  0  0  0  0  0  0  0
    2.1568   -3.1551   -3.1916 O   0  0  0  0  0  0  0  0  0  0  0  0
    4.3412   -6.5802    3.4987 H   0  0  0  0  0  0  0  0  0  0  0  0
    3.0384    0.1331   -4.9424 H   0  0  0  0  0  0  0  0  0  0  0  0
    4.6626   -0.2722   -4.4887 H   0  0  0  0  0  0  0  0  0  0  0  0
    3.8415    1.0394   -3.6440 H   0  0  0  0  0  0  0  0  0  0  0  0
    2.2395   -0.6743   -2.6997 H   0  0  0  0  0  0  0  0  0  0  0  0
    5.8820   -1.9934   -1.6350 H   0  0  0  0  0  0  0  0  0  0  0  0
    2.1644   -2.6400   -0.6779 H   0  0  0  0  0  0  0  0  0  0  0  0
    2.9231   -5.7890    2.8057 H   0  0  0  0  0  0  0  0  0  0  0  0
    7.8259   -5.1350    1.0916 H   0  0  0  0  0  0  0  0  0  0  0  0
    5.3596   -2.4363   -3.9066 H   0  0  0  0  0  0  0  0  0  0  0  0
    4.1027   -4.6409   -2.7027 H   0  0  0  0  0  0  0  0  0  0  0  0
    3.1290   -2.3733   -4.7633 H   0  0  0  0  0  0  0  0  0  0  0  0
    2.3721   -4.0777   -3.2237 H   0  0  0  0  0  0  0  0  0  0  0  0
  1  2  1  0
  1 20  1  0
  1 21  1  0
  1 22  1  0
  2 17  1  0
  2  3  1  0
  2 23  1  1
  3  4  1  0
  4 15  1  0
  4 24  1  1
  4  5  1  0
  5  6  1  0
  5 14  1  0
  6  7  2  0
  6 25  1  0
  7  8  1  0
  8  9  1  0
  8 14  2  0
  9 11  2  0
  9 10  1  0
 10 26  1  0
 10 19  1  0
 11 12  1  0
 12 27  1  0
 12 13  2  0
 13 14  1  0
 15 16  1  0
 15 17  1  0
 15 28  1  6
 16 29  1  0
 17 18  1  0
 17 30  1  6
 18 31  1  0
M  END
>  <i_m_ct_stereo_status>  (22) 
1

>  <s_m_source_file>  (22) 
/var/tmp/pbs.5076255.sched01/tmpn440o9cr/0yczfkg0t.sdf

>  <i_m_source_file_index>  (22) 
12

>  <i_lp_mmshare_version>  (22) 
48012

>  <i_f3d_flags>  (22) 
0

>  <s_epik_input>  (22) 
W0NIM11bQ0BASF0xT1tDQEhdKFtDQEBIXShbT0hdKVtDQEhdMVtPSF0pbihbY0hdbjIpYyhjMjMpbltjSF1bbkhdY1wzPU5cW0hd

>  <s_epik_cmdline>  (22) 
J2VwaWtfcHl0aG9uJywgJy1waHQnLCAnMi4wJywgJy1waCcsICc3LjAnLCAnLXRuJywgJzgnLCAnLW1hJywgJzIwMCcsICctaW1hZScsICc8aW5maWxlLm1hZT4nLCAnLW9tYWUnLCAnPG91dGZpbGUubWFlPic=

>  <r_lp_tautomer_probability>  (22) 
1

>  <r_epik_Ionization_Penalty>  (22) 
0.000431048

>  <r_epik_Ionization_Penalty_Charging>  (22) 
0

>  <r_epik_Ionization_Penalty_Neutral>  (22) 
0.000431048

>  <r_epik_State_Penalty>  (22) 
-0

>  <r_epik_Charging_Adjusted_Penalty>  (22) 
0

>  <i_epik_Tot_Q>  (22) 
0

>  <i_epik_Tot_abs_Q>  (22) 
0

>  <s_epik_Chemistry_Notes>  (22) 
This compound contains an acetal/aminal-like group ( X-CH(R)-Y where X, Y are N, S, or O) that may be acid/base labile, releasing an aldehyde.

>  <s_lp_Force_Field>  (22) 
OPLS3e

>  <r_lp_Energy>  (22) 
16.694

>  <b_lp_Chiralities_Consistent>  (22) 
1

>  <s_lp_Variant>  (22) 
10:0-1

>  <s_i_glide_gridfile>  (22) 
pfpi4k_grid

>  <i_i_glide_lignum>  (22) 
12

>  <i_i_glide_rotatable_bonds>  (22) 
3

>  <r_i_docking_score>  (22) 
-3.92201

>  <r_i_glide_ligand_efficiency>  (22) 
-0.21789

>  <r_i_glide_ligand_efficiency_sa>  (22) 
-0.571033

>  <r_i_glide_ligand_efficiency_ln>  (22) 
-1.00813

>  <r_i_glide_gscore>  (22) 
-3.92201

>  <r_i_glide_lipo>  (22) 
-0.533646

>  <r_i_glide_hbond>  (22) 
0

>  <r_i_glide_metal>  (22) 
-0

>  <r_i_glide_rewards>  (22) 
-1.9099

>  <r_i_glide_evdw>  (22) 
-23.7414

>  <r_i_glide_ecoul>  (22) 
-3.65014

>  <r_i_glide_erotb>  (22) 
0.277631

>  <r_i_glide_esite>  (22) 
-0.0215103

>  <r_i_glide_emodel>  (22) 
-34.303

>  <r_i_glide_energy>  (22) 
-27.3916

>  <r_i_glide_einternal>  (22) 
1.0849

>  <r_i_glide_intrahb_reward>  (22) 
-0

>  <i_i_glide_confnum>  (22) 
6

>  <i_i_glide_posenum>  (22) 
5

>  <r_i_glide_eff_state_penalty>  (22) 
0

>  <ligand_id>  (22) 
10

>  <original_smiles>  (22) 
CC1OC(n2cnc3c(=N)[nH]cnc32)C(O)C1O

>  <smiles>  (22) 
[H]OC1([H])C([H])(n2c([H])nc3c(N([H])[H])nc([H])nc32)OC([H])(C([H])([H])[H])C1([H])O[H]

$$$$
11:0:0
     RDKit          3D

 50 53  0  0  1  0  0  0  0  0999 V2000
    4.5309   -2.9815    2.0316 C   0  0  0  0  0  0  0  0  0  0  0  0
    3.5114   -2.4465    1.0177 C   0  0  2  0  0  0  0  0  0  0  0  0
    2.5771   -3.5629    0.5938 C   0  0  0  0  0  0  0  0  0  0  0  0
    3.1844   -4.5076   -0.4373 C   0  0  0  0  0  0  0  0  0  0  0  0
    3.6306   -3.7538   -1.7107 C   0  0  1  0  0  0  0  0  0  0  0  0
    2.4123   -3.3232   -2.5502 C   0  0  0  0  0  0  0  0  0  0  0  0
    2.8148   -2.4582   -3.7132 C   0  0  0  0  0  0  0  0  0  0  0  0
    3.4622   -1.3013   -3.1242 N   0  0  0  0  0  0  0  0  0  0  0  0
    3.8178   -0.3418   -4.1387 C   0  0  0  0  0  0  0  0  0  0  0  0
    2.5591    0.3497   -4.6935 C   0  0  0  0  0  0  0  0  0  0  0  0
    2.9330    1.5756   -5.2579 O   0  0  0  0  0  0  0  0  0  0  0  0
    4.7423   -1.7834   -2.5939 O   0  0  0  0  0  0  0  0  0  0  0  0
    4.5568   -2.5732   -1.3938 C   0  0  1  0  0  0  0  0  0  0  0  0
    3.9928   -1.6882   -0.2467 C   0  0  2  0  0  0  0  0  0  0  0  0
    4.9334   -0.5262    0.0490 C   0  0  0  0  0  0  0  0  0  0  0  0
    6.3822   -0.9021    0.3920 C   0  0  0  0  0  0  0  0  0  0  0  0
    6.8837   -2.2253   -0.2124 C   0  0  2  0  0  0  0  0  0  0  0  0
    7.9471   -2.8230    0.6710 C   0  0  0  0  0  0  0  0  0  0  0  0
    7.5507   -1.8927   -1.4017 O   0  0  0  0  0  0  0  0  0  0  0  0
    7.0880   -3.0633   -2.0159 C   0  0  0  0  0  0  0  0  0  0  0  0
    5.9420   -3.1043   -1.0207 C   0  0  2  0  0  0  0  0  0  0  0  0
    5.2259   -3.6932    1.5851 H   0  0  0  0  0  0  0  0  0  0  0  0
    4.0223   -3.5084    2.8364 H   0  0  0  0  0  0  0  0  0  0  0  0
    5.0920   -2.1743    2.4994 H   0  0  0  0  0  0  0  0  0  0  0  0
    2.9029   -1.7358    1.5769 H   0  0  0  0  0  0  0  0  0  0  0  0
    2.2035   -4.1196    1.4554 H   0  0  0  0  0  0  0  0  0  0  0  0
    1.7447   -3.0551    0.1306 H   0  0  0  0  0  0  0  0  0  0  0  0
    4.0149   -5.0618    0.0056 H   0  0  0  0  0  0  0  0  0  0  0  0
    2.4269   -5.2486   -0.6970 H   0  0  0  0  0  0  0  0  0  0  0  0
    4.2301   -4.4217   -2.3210 H   0  0  0  0  0  0  0  0  0  0  0  0
    1.9004   -4.1672   -2.9947 H   0  0  0  0  0  0  0  0  0  0  0  0
    1.6707   -2.8076   -1.9560 H   0  0  0  0  0  0  0  0  0  0  0  0
    3.4774   -2.9632   -4.4156 H   0  0  0  0  0  0  0  0  0  0  0  0
    1.9040   -2.1830   -4.2382 H   0  0  0  0  0  0  0  0  0  0  0  0
    4.4701    0.4140   -3.6793 H   0  0  0  0  0  0  0  0  0  0  0  0
    4.4005   -0.7598   -4.9662 H   0  0  0  0  0  0  0  0  0  0  0  0
    2.0357   -0.2544   -5.4337 H   0  0  0  0  0  0  0  0  0  0  0  0
    1.8450    0.5439   -3.8946 H   0  0  0  0  0  0  0  0  0  0  0  0
    2.8580    2.1898   -4.5394 H   0  0  0  0  0  0  0  0  0  0  0  0
    3.0777   -1.2226   -0.6204 H   0  0  0  0  0  0  0  0  0  0  0  0
    4.9326    0.0344   -0.8850 H   0  0  0  0  0  0  0  0  0  0  0  0
    4.5233    0.1389    0.8069 H   0  0  0  0  0  0  0  0  0  0  0  0
    7.0110   -0.0751    0.0958 H   0  0  0  0  0  0  0  0  0  0  0  0
    6.4926   -0.9099    1.4723 H   0  0  0  0  0  0  0  0  0  0  0  0
    7.5279   -3.0720    1.6447 H   0  0  0  0  0  0  0  0  0  0  0  0
    8.7722   -2.1120    0.7777 H   0  0  0  0  0  0  0  0  0  0  0  0
    8.3805   -3.7348    0.2714 H   0  0  0  0  0  0  0  0  0  0  0  0
    6.7405   -2.9464   -3.0370 H   0  0  0  0  0  0  0  0  0  0  0  0
    7.8317   -3.8556   -1.9510 H   0  0  0  0  0  0  0  0  0  0  0  0
    5.9376   -4.0847   -0.5330 H   0  0  0  0  0  0  0  0  0  0  0  0
  1  2  1  0
  1 22  1  0
  1 23  1  0
  1 24  1  0
  2 14  1  0
  2  3  1  0
  2 25  1  1
  3  4  1  0
  3 26  1  0
  3 27  1  0
  4  5  1  0
  4 28  1  0
  4 29  1  0
  5 13  1  0
  5  6  1  0
  5 30  1  6
  6  7  1  0
  6 31  1  0
  6 32  1  0
  7  8  1  0
  7 33  1  0
  7 34  1  0
  8  9  1  0
  8 12  1  0
  9 10  1  0
  9 35  1  0
  9 36  1  0
 10 11  1  0
 10 37  1  0
 10 38  1  0
 11 39  1  0
 13 12  1  6
 13 21  1  0
 13 14  1  0
 14 15  1  0
 14 40  1  6
 15 16  1  0
 15 41  1  0
 15 42  1  0
 16 17  1  0
 16 43  1  0
 16 44  1  0
 17 21  1  0
 17 18  1  1
 17 19  1  0
 18 45  1  0
 18 46  1  0
 18 47  1  0
 19 20  1  0
 20 21  1  0
 20 48  1  0
 20 49  1  0
 21 50  1  1
M  END
>  <i_m_ct_stereo_status>  (23) 
1

>  <s_m_source_file>  (23) 
/var/tmp/pbs.5076255.sched01/tmpn440o9cr/0yczfkg0t.sdf

>  <i_m_source_file_index>  (23) 
13

>  <i_lp_mmshare_version>  (23) 
48012

>  <i_f3d_flags>  (23) 
0

>  <s_epik_input>  (23) 
TzFbQ0gyXVtDQEhdMltDQF0xKFtDSDNdKVtDSDJdW0NIMl1bQ0BASF0zW0NASF0oW0NIM10pW0NIMl1bQ0gyXVtDQEhdKFtDQF0yMzQpW0NIMl1bQ0gyXU4oTzQpW0NIMl1bQ0gyXVtPSF0=

>  <s_epik_cmdline>  (23) 
J2VwaWtfcHl0aG9uJywgJy1waHQnLCAnMi4wJywgJy1waCcsICc3LjAnLCAnLXRuJywgJzgnLCAnLW1hJywgJzIwMCcsICctaW1hZScsICc8aW5maWxlLm1hZT4nLCAnLW9tYWUnLCAnPG91dGZpbGUubWFlPic=

>  <r_epik_Ionization_Penalty>  (23) 
0.0187681

>  <r_epik_Ionization_Penalty_Charging>  (23) 
0

>  <r_epik_Ionization_Penalty_Neutral>  (23) 
0.0187681

>  <r_epik_State_Penalty>  (23) 
0.0149526

>  <r_epik_Charging_Adjusted_Penalty>  (23) 
0.0149526

>  <i_epik_Tot_Q>  (23) 
0

>  <i_epik_Tot_abs_Q>  (23) 
0

>  <s_epik_Chemistry_Notes>  (23) 
This compound has a N-S or N-O group and may undergo hydrolysis at high or low pH.

>  <s_lp_Force_Field>  (23) 
OPLS3e

>  <r_lp_Energy>  (23) 
39.3478

>  <b_lp_Chiralities_Consistent>  (23) 
1

>  <s_lp_Variant>  (23) 
11:0-1

>  <s_i_glide_gridfile>  (23) 
pfpi4k_grid

>  <i_i_glide_lignum>  (23) 
13

>  <i_i_glide_rotatable_bonds>  (23) 
3

>  <r_i_docking_score>  (23) 
-4.69594

>  <r_i_glide_ligand_efficiency>  (23) 
-0.223616

>  <r_i_glide_ligand_efficiency_sa>  (23) 
-0.61694

>  <r_i_glide_ligand_efficiency_ln>  (23) 
-1.16106

>  <r_i_glide_gscore>  (23) 
-4.69594

>  <r_i_glide_lipo>  (23) 
-1.0287

>  <r_i_glide_hbond>  (23) 
-0.359812

>  <r_i_glide_metal>  (23) 
-0

>  <r_i_glide_rewards>  (23) 
-1.428

>  <r_i_glide_evdw>  (23) 
-11.7637

>  <r_i_glide_ecoul>  (23) 
-11.3764

>  <r_i_glide_erotb>  (23) 
0.419474

>  <r_i_glide_esite>  (23) 
-0.0042588

>  <r_i_glide_emodel>  (23) 
-26.7434

>  <r_i_glide_energy>  (23) 
-23.1401

>  <r_i_glide_einternal>  (23) 
4.40909

>  <r_i_glide_intrahb_reward>  (23) 
-0

>  <i_i_glide_confnum>  (23) 
5

>  <i_i_glide_posenum>  (23) 
17

>  <r_i_glide_eff_state_penalty>  (23) 
0

>  <ligand_id>  (23) 
11

>  <original_smiles>  (23) 
CC1CCC2CCN(CCO)OC23C1CCC1(C)OCC13

>  <smiles>  (23) 
[H]OC([H])([H])C([H])([H])N1OC23C([H])(C([H])([H])C1([H])[H])C([H])([H])C([H])([H])C([H])(C([H])([H])[H])C2([H])C([H])([H])C([H])([H])C1(C([H])([H])[H])OC([H])([H])C13[H]

$$$$
11:0:1
     RDKit          3D

 50 53  0  0  1  0  0  0  0  0999 V2000
    2.6256   -0.6783    4.5715 C   0  0  0  0  0  0  0  0  0  0  0  0
    2.3185    0.5847    3.7422 C   0  0  2  0  0  0  0  0  0  0  0  0
    3.3196    1.7035    4.0826 C   0  0  0  0  0  0  0  0  0  0  0  0
    2.9794    2.4022    5.4122 C   0  0  0  0  0  0  0  0  0  0  0  0
    1.5555    3.0028    5.4152 C   0  0  1  0  0  0  0  0  0  0  0  0
    1.4992    4.2600    4.5257 C   0  0  0  0  0  0  0  0  0  0  0  0
    0.0689    4.7382    4.3004 C   0  0  0  0  0  0  0  0  0  0  0  0
   -0.6801    3.6226    3.7461 N   0  0  0  0  0  0  0  0  0  0  0  0
   -2.0333    4.0648    3.4273 C   0  0  0  0  0  0  0  0  0  0  0  0
   -2.9176    2.9266    2.9052 C   0  0  0  0  0  0  0  0  0  0  0  0
   -4.1490    3.4558    2.4594 O   0  0  0  0  0  0  0  0  0  0  0  0
   -0.7905    2.6484    4.8232 O   0  0  0  0  0  0  0  0  0  0  0  0
    0.4633    1.9524    5.0316 C   0  0  1  0  0  0  0  0  0  0  0  0
    0.8576    1.1445    3.7558 C   0  0  2  0  0  0  0  0  0  0  0  0
   -0.2575    0.1378    3.3948 C   0  0  0  0  0  0  0  0  0  0  0  0
   -0.6649   -0.8665    4.4950 C   0  0  0  0  0  0  0  0  0  0  0  0
   -0.5072   -0.3748    5.9440 C   0  0  2  0  0  0  0  0  0  0  0  0
   -0.1564   -1.5653    6.8471 C   0  0  0  0  0  0  0  0  0  0  0  0
   -1.7537    0.1555    6.4766 O   0  0  0  0  0  0  0  0  0  0  0  0
   -1.0052    1.2077    7.1382 C   0  0  0  0  0  0  0  0  0  0  0  0
    0.1836    0.9766    6.2059 C   0  0  2  0  0  0  0  0  0  0  0  0
    2.4260   -0.5456    5.6318 H   0  0  0  0  0  0  0  0  0  0  0  0
    3.6801   -0.9432    4.4839 H   0  0  0  0  0  0  0  0  0  0  0  0
    2.0741   -1.5443    4.2136 H   0  0  0  0  0  0  0  0  0  0  0  0
    2.5223    0.2956    2.7104 H   0  0  0  0  0  0  0  0  0  0  0  0
    4.3342    1.3037    4.1217 H   0  0  0  0  0  0  0  0  0  0  0  0
    3.3369    2.4292    3.2701 H   0  0  0  0  0  0  0  0  0  0  0  0
    3.0891    1.6906    6.2302 H   0  0  0  0  0  0  0  0  0  0  0  0
    3.7123    3.1870    5.6034 H   0  0  0  0  0  0  0  0  0  0  0  0
    1.3418    3.3416    6.4299 H   0  0  0  0  0  0  0  0  0  0  0  0
    2.0802    5.0612    4.9834 H   0  0  0  0  0  0  0  0  0  0  0  0
    1.9461    4.0771    3.5501 H   0  0  0  0  0  0  0  0  0  0  0  0
   -0.3835    5.0863    5.2302 H   0  0  0  0  0  0  0  0  0  0  0  0
    0.0740    5.5705    3.5952 H   0  0  0  0  0  0  0  0  0  0  0  0
   -2.4975    4.5244    4.3012 H   0  0  0  0  0  0  0  0  0  0  0  0
   -1.9566    4.8305    2.6518 H   0  0  0  0  0  0  0  0  0  0  0  0
   -2.4340    2.4031    2.0789 H   0  0  0  0  0  0  0  0  0  0  0  0
   -3.1095    2.1905    3.6862 H   0  0  0  0  0  0  0  0  0  0  0  0
   -4.6588    2.7499    2.0877 H   0  0  0  0  0  0  0  0  0  0  0  0
    0.8758    1.8470    2.9202 H   0  0  0  0  0  0  0  0  0  0  0  0
   -1.1462    0.7119    3.1380 H   0  0  0  0  0  0  0  0  0  0  0  0
    0.0210   -0.3877    2.4826 H   0  0  0  0  0  0  0  0  0  0  0  0
   -1.6865   -1.2013    4.3225 H   0  0  0  0  0  0  0  0  0  0  0  0
   -0.0619   -1.7618    4.3443 H   0  0  0  0  0  0  0  0  0  0  0  0
    0.7904   -2.0249    6.5588 H   0  0  0  0  0  0  0  0  0  0  0  0
   -0.9226   -2.3376    6.7896 H   0  0  0  0  0  0  0  0  0  0  0  0
   -0.0578   -1.2748    7.8912 H   0  0  0  0  0  0  0  0  0  0  0  0
   -1.4692    2.1888    7.0676 H   0  0  0  0  0  0  0  0  0  0  0  0
   -0.7825    0.9565    8.1749 H   0  0  0  0  0  0  0  0  0  0  0  0
    1.0750    0.8016    6.8070 H   0  0  0  0  0  0  0  0  0  0  0  0
  1  2  1  0
  1 22  1  0
  1 23  1  0
  1 24  1  0
  2 14  1  0
  2  3  1  0
  2 25  1  6
  3  4  1  0
  3 26  1  0
  3 27  1  0
  4  5  1  0
  4 28  1  0
  4 29  1  0
  5 13  1  0
  5  6  1  0
  5 30  1  1
  6  7  1  0
  6 31  1  0
  6 32  1  0
  7  8  1  0
  7 33  1  0
  7 34  1  0
  8  9  1  0
  8 12  1  0
  9 10  1  0
  9 35  1  0
  9 36  1  0
 10 11  1  0
 10 37  1  0
 10 38  1  0
 11 39  1  0
 13 12  1  6
 13 21  1  0
 13 14  1  0
 14 15  1  0
 14 40  1  6
 15 16  1  0
 15 41  1  0
 15 42  1  0
 16 17  1  0
 16 43  1  0
 16 44  1  0
 17 21  1  0
 17 18  1  1
 17 19  1  0
 18 45  1  0
 18 46  1  0
 18 47  1  0
 19 20  1  0
 20 21  1  0
 20 48  1  0
 20 49  1  0
 21 50  1  1
M  END
>  <i_m_ct_stereo_status>  (24) 
1

>  <s_m_source_file>  (24) 
/var/tmp/pbs.5076255.sched01/tmpn440o9cr/0yczfkg0t.sdf

>  <i_m_source_file_index>  (24) 
13

>  <i_lp_mmshare_version>  (24) 
48012

>  <i_f3d_flags>  (24) 
0

>  <s_epik_input>  (24) 
TzFbQ0gyXVtDQEhdMltDQF0xKFtDSDNdKVtDSDJdW0NIMl1bQ0BASF0zW0NASF0oW0NIM10pW0NIMl1bQ0gyXVtDQEhdKFtDQF0yMzQpW0NIMl1bQ0gyXU4oTzQpW0NIMl1bQ0gyXVtPSF0=

>  <s_epik_cmdline>  (24) 
J2VwaWtfcHl0aG9uJywgJy1waHQnLCAnMi4wJywgJy1waCcsICc3LjAnLCAnLXRuJywgJzgnLCAnLW1hJywgJzIwMCcsICctaW1hZScsICc8aW5maWxlLm1hZT4nLCAnLW9tYWUnLCAnPG91dGZpbGUubWFlPic=

>  <r_epik_Ionization_Penalty>  (24) 
0.0187681

>  <r_epik_Ionization_Penalty_Charging>  (24) 
0

>  <r_epik_Ionization_Penalty_Neutral>  (24) 
0.0187681

>  <r_epik_State_Penalty>  (24) 
0.0149526

>  <r_epik_Charging_Adjusted_Penalty>  (24) 
0.0149526

>  <i_epik_Tot_Q>  (24) 
0

>  <i_epik_Tot_abs_Q>  (24) 
0

>  <s_epik_Chemistry_Notes>  (24) 
This compound has a N-S or N-O group and may undergo hydrolysis at high or low pH.

>  <s_lp_Force_Field>  (24) 
OPLS3e

>  <r_lp_Energy>  (24) 
39.3478

>  <b_lp_Chiralities_Consistent>  (24) 
1

>  <s_lp_Variant>  (24) 
11:0-1

>  <s_i_glide_gridfile>  (24) 
pfpi4k_grid

>  <i_i_glide_lignum>  (24) 
13

>  <i_i_glide_rotatable_bonds>  (24) 
3

>  <r_i_docking_score>  (24) 
-2.68828

>  <r_i_glide_ligand_efficiency>  (24) 
-0.128013

>  <r_i_glide_ligand_efficiency_sa>  (24) 
-0.353179

>  <r_i_glide_ligand_efficiency_ln>  (24) 
-0.664671

>  <r_i_glide_gscore>  (24) 
-2.68828

>  <r_i_glide_lipo>  (24) 
0

>  <r_i_glide_hbond>  (24) 
-0.16

>  <r_i_glide_metal>  (24) 
-0

>  <r_i_glide_rewards>  (24) 
-1.39488

>  <r_i_glide_evdw>  (24) 
-16.8633

>  <r_i_glide_ecoul>  (24) 
-4.08416

>  <r_i_glide_erotb>  (24) 
0.419474

>  <r_i_glide_esite>  (24) 
-0.0970754

>  <r_i_glide_emodel>  (24) 
-24.1987

>  <r_i_glide_energy>  (24) 
-20.9475

>  <r_i_glide_einternal>  (24) 
0.485739

>  <r_i_glide_intrahb_reward>  (24) 
-0

>  <i_i_glide_confnum>  (24) 
5

>  <i_i_glide_posenum>  (24) 
6

>  <r_i_glide_eff_state_penalty>  (24) 
0

>  <ligand_id>  (24) 
11

>  <original_smiles>  (24) 
CC1CCC2CCN(CCO)OC23C1CCC1(C)OCC13

>  <smiles>  (24) 
[H]OC([H])([H])C([H])([H])N1OC23C([H])(C([H])([H])C1([H])[H])C([H])([H])C([H])([H])C([H])(C([H])([H])[H])C2([H])C([H])([H])C([H])([H])C1(C([H])([H])[H])OC([H])([H])C13[H]

$$$$
11:0:2
     RDKit          3D

 50 53  0  0  1  0  0  0  0  0999 V2000
    2.7350   -0.8592    4.7602 C   0  0  0  0  0  0  0  0  0  0  0  0
    2.0099    0.0422    3.7408 C   0  0  2  0  0  0  0  0  0  0  0  0
    2.8924    1.2458    3.3693 C   0  0  0  0  0  0  0  0  0  0  0  0
    2.8813    2.3327    4.4600 C   0  0  0  0  0  0  0  0  0  0  0  0
    1.4567    2.8488    4.7625 C   0  0  1  0  0  0  0  0  0  0  0  0
    0.9648    3.7391    3.6114 C   0  0  0  0  0  0  0  0  0  0  0  0
   -0.5060    4.0843    3.7531 C   0  0  0  0  0  0  0  0  0  0  0  0
   -1.2410    2.8250    3.8068 N   0  0  0  0  0  0  0  0  0  0  0  0
   -2.6765    3.0705    3.8535 C   0  0  0  0  0  0  0  0  0  0  0  0
   -3.2087    3.4525    2.4608 C   0  0  0  0  0  0  0  0  0  0  0  0
   -4.5866    3.7361    2.4763 O   0  0  0  0  0  0  0  0  0  0  0  0
   -0.8903    2.2255    5.0918 O   0  0  0  0  0  0  0  0  0  0  0  0
    0.4595    1.6928    5.0914 C   0  0  1  0  0  0  0  0  0  0  0  0
    0.5590    0.5199    4.0703 C   0  0  2  0  0  0  0  0  0  0  0  0
   -0.4600   -0.5886    4.4302 C   0  0  0  0  0  0  0  0  0  0  0  0
   -0.3559   -1.1809    5.8518 C   0  0  0  0  0  0  0  0  0  0  0  0
    0.1554   -0.2225    6.9381 C   0  0  2  0  0  0  0  0  0  0  0  0
    0.9313   -1.0295    7.9911 C   0  0  0  0  0  0  0  0  0  0  0  0
   -0.9543    0.4227    7.6244 O   0  0  0  0  0  0  0  0  0  0  0  0
   -0.1768    1.6434    7.6802 C   0  0  0  0  0  0  0  0  0  0  0  0
    0.6972    1.1596    6.5260 C   0  0  2  0  0  0  0  0  0  0  0  0
    2.8487   -0.3884    5.7349 H   0  0  0  0  0  0  0  0  0  0  0  0
    3.7405   -1.0938    4.4058 H   0  0  0  0  0  0  0  0  0  0  0  0
    2.2352   -1.8179    4.8847 H   0  0  0  0  0  0  0  0  0  0  0  0
    1.9283   -0.5672    2.8408 H   0  0  0  0  0  0  0  0  0  0  0  0
    3.9160    0.9205    3.1883 H   0  0  0  0  0  0  0  0  0  0  0  0
    2.5569    1.6583    2.4180 H   0  0  0  0  0  0  0  0  0  0  0  0
    3.3375    1.9380    5.3685 H   0  0  0  0  0  0  0  0  0  0  0  0
    3.5140    3.1646    4.1416 H   0  0  0  0  0  0  0  0  0  0  0  0
    1.5170    3.5010    5.6359 H   0  0  0  0  0  0  0  0  0  0  0  0
    1.5391    4.6650    3.5764 H   0  0  0  0  0  0  0  0  0  0  0  0
    1.1075    3.2520    2.6472 H   0  0  0  0  0  0  0  0  0  0  0  0
   -0.6979    4.6751    4.6499 H   0  0  0  0  0  0  0  0  0  0  0  0
   -0.7850    4.6754    2.8824 H   0  0  0  0  0  0  0  0  0  0  0  0
   -3.1759    2.1554    4.1645 H   0  0  0  0  0  0  0  0  0  0  0  0
   -2.9046    3.8306    4.6054 H   0  0  0  0  0  0  0  0  0  0  0  0
   -2.7279    4.3588    2.0882 H   0  0  0  0  0  0  0  0  0  0  0  0
   -3.0147    2.6385    1.7589 H   0  0  0  0  0  0  0  0  0  0  0  0
   -4.9101    3.7530    1.5866 H   0  0  0  0  0  0  0  0  0  0  0  0
    0.2184    0.9013    3.1082 H   0  0  0  0  0  0  0  0  0  0  0  0
   -1.4602   -0.1571    4.3258 H   0  0  0  0  0  0  0  0  0  0  0  0
   -0.4022   -1.3948    3.6960 H   0  0  0  0  0  0  0  0  0  0  0  0
   -1.3208   -1.6001    6.1408 H   0  0  0  0  0  0  0  0  0  0  0  0
    0.3025   -2.0477    5.7885 H   0  0  0  0  0  0  0  0  0  0  0  0
    1.8035   -1.5279    7.5618 H   0  0  0  0  0  0  0  0  0  0  0  0
    0.3025   -1.8023    8.4320 H   0  0  0  0  0  0  0  0  0  0  0  0
    1.2973   -0.4071    8.8075 H   0  0  0  0  0  0  0  0  0  0  0  0
   -0.7637    2.5388    7.4840 H   0  0  0  0  0  0  0  0  0  0  0  0
    0.3777    1.7332    8.6139 H   0  0  0  0  0  0  0  0  0  0  0  0
    1.7443    1.2302    6.8244 H   0  0  0  0  0  0  0  0  0  0  0  0
  1  2  1  0
  1 22  1  0
  1 23  1  0
  1 24  1  0
  2 14  1  0
  2  3  1  0
  2 25  1  6
  3  4  1  0
  3 26  1  0
  3 27  1  0
  4  5  1  0
  4 28  1  0
  4 29  1  0
  5 13  1  0
  5  6  1  0
  5 30  1  1
  6  7  1  0
  6 31  1  0
  6 32  1  0
  7  8  1  0
  7 33  1  0
  7 34  1  0
  8  9  1  0
  8 12  1  0
  9 10  1  0
  9 35  1  0
  9 36  1  0
 10 11  1  0
 10 37  1  0
 10 38  1  0
 11 39  1  0
 13 12  1  1
 13 21  1  0
 13 14  1  0
 14 15  1  0
 14 40  1  6
 15 16  1  0
 15 41  1  0
 15 42  1  0
 16 17  1  0
 16 43  1  0
 16 44  1  0
 17 21  1  0
 17 18  1  1
 17 19  1  0
 18 45  1  0
 18 46  1  0
 18 47  1  0
 19 20  1  0
 20 21  1  0
 20 48  1  0
 20 49  1  0
 21 50  1  1
M  END
>  <i_m_ct_stereo_status>  (25) 
1

>  <s_m_source_file>  (25) 
/var/tmp/pbs.5076255.sched01/tmpn440o9cr/0yczfkg0t.sdf

>  <i_m_source_file_index>  (25) 
13

>  <i_lp_mmshare_version>  (25) 
48012

>  <i_f3d_flags>  (25) 
0

>  <s_epik_input>  (25) 
TzFbQ0gyXVtDQEhdMltDQF0xKFtDSDNdKVtDSDJdW0NIMl1bQ0BASF0zW0NASF0oW0NIM10pW0NIMl1bQ0gyXVtDQEhdKFtDQF0yMzQpW0NIMl1bQ0gyXU4oTzQpW0NIMl1bQ0gyXVtPSF0=

>  <s_epik_cmdline>  (25) 
J2VwaWtfcHl0aG9uJywgJy1waHQnLCAnMi4wJywgJy1waCcsICc3LjAnLCAnLXRuJywgJzgnLCAnLW1hJywgJzIwMCcsICctaW1hZScsICc8aW5maWxlLm1hZT4nLCAnLW9tYWUnLCAnPG91dGZpbGUubWFlPic=

>  <r_epik_Ionization_Penalty>  (25) 
0.0187681

>  <r_epik_Ionization_Penalty_Charging>  (25) 
0

>  <r_epik_Ionization_Penalty_Neutral>  (25) 
0.0187681

>  <r_epik_State_Penalty>  (25) 
0.0149526

>  <r_epik_Charging_Adjusted_Penalty>  (25) 
0.0149526

>  <i_epik_Tot_Q>  (25) 
0

>  <i_epik_Tot_abs_Q>  (25) 
0

>  <s_epik_Chemistry_Notes>  (25) 
This compound has a N-S or N-O group and may undergo hydrolysis at high or low pH.

>  <s_lp_Force_Field>  (25) 
OPLS3e

>  <r_lp_Energy>  (25) 
39.3478

>  <b_lp_Chiralities_Consistent>  (25) 
1

>  <s_lp_Variant>  (25) 
11:0-1

>  <s_i_glide_gridfile>  (25) 
pfpi4k_grid

>  <i_i_glide_lignum>  (25) 
13

>  <i_i_glide_rotatable_bonds>  (25) 
3

>  <r_i_docking_score>  (25) 
-2.39161

>  <r_i_glide_ligand_efficiency>  (25) 
-0.113886

>  <r_i_glide_ligand_efficiency_sa>  (25) 
-0.314204

>  <r_i_glide_ligand_efficiency_ln>  (25) 
-0.591321

>  <r_i_glide_gscore>  (25) 
-2.39161

>  <r_i_glide_lipo>  (25) 
0

>  <r_i_glide_hbond>  (25) 
-0.0943741

>  <r_i_glide_metal>  (25) 
-0

>  <r_i_glide_rewards>  (25) 
-1.39488

>  <r_i_glide_evdw>  (25) 
-14.0522

>  <r_i_glide_ecoul>  (25) 
-3.7646

>  <r_i_glide_erotb>  (25) 
0.419474

>  <r_i_glide_esite>  (25) 
-0.0545319

>  <r_i_glide_emodel>  (25) 
-19.6964

>  <r_i_glide_energy>  (25) 
-17.8168

>  <r_i_glide_einternal>  (25) 
2.39673

>  <r_i_glide_intrahb_reward>  (25) 
-0

>  <i_i_glide_confnum>  (25) 
3

>  <i_i_glide_posenum>  (25) 
22

>  <r_i_glide_eff_state_penalty>  (25) 
0

>  <ligand_id>  (25) 
11

>  <original_smiles>  (25) 
CC1CCC2CCN(CCO)OC23C1CCC1(C)OCC13

>  <smiles>  (25) 
[H]OC([H])([H])C([H])([H])N1OC23C([H])(C([H])([H])C1([H])[H])C([H])([H])C([H])([H])C([H])(C([H])([H])[H])C2([H])C([H])([H])C([H])([H])C1(C([H])([H])[H])OC([H])([H])C13[H]

$$$$
11:1:0
     RDKit          3D

 51 54  0  0  1  0  0  0  0  0999 V2000
    6.8885   -5.1474    2.1729 C   0  0  0  0  0  0  0  0  0  0  0  0
    6.7256   -4.5104    0.7804 C   0  0  2  0  0  0  0  0  0  0  0  0
    7.3246   -3.0939    0.7625 C   0  0  0  0  0  0  0  0  0  0  0  0
    6.3815   -2.0522    1.4022 C   0  0  0  0  0  0  0  0  0  0  0  0
    5.0057   -2.0096    0.7104 C   0  0  1  0  0  0  0  0  0  0  0  0
    5.1324   -1.3632   -0.6841 C   0  0  0  0  0  0  0  0  0  0  0  0
    3.8222   -1.4511   -1.4515 C   0  0  0  0  0  0  0  0  0  0  0  0
    3.4111   -2.8606   -1.4966 N   0  0  2  0  0  0  0  0  0  0  0  0
    2.2614   -3.1055   -2.4030 C   0  0  0  0  0  0  0  0  0  0  0  0
    2.7218   -3.2140   -3.8587 C   0  0  0  0  0  0  0  0  0  0  0  0
    3.9744   -3.8684   -3.9277 O   0  0  0  0  0  0  0  0  0  0  0  0
    3.1426   -3.3761   -0.1645 O   0  0  0  0  0  0  0  0  0  0  0  0
    4.3306   -3.4187    0.6640 C   0  0  1  0  0  0  0  0  0  0  0  0
    5.3064   -4.5102    0.1320 C   0  0  2  0  0  0  0  0  0  0  0  0
    4.5999   -5.8819    0.0812 C   0  0  0  0  0  0  0  0  0  0  0  0
    3.9567   -6.3923    1.3841 C   0  0  0  0  0  0  0  0  0  0  0  0
    3.4636   -5.3103    2.3515 C   0  0  2  0  0  0  0  0  0  0  0  0
    3.6089   -5.8180    3.7940 C   0  0  0  0  0  0  0  0  0  0  0  0
    2.0505   -5.0310    2.1413 O   0  0  0  0  0  0  0  0  0  0  0  0
    2.3178   -3.6277    2.3970 C   0  0  0  0  0  0  0  0  0  0  0  0
    3.7935   -3.8360    2.0615 C   0  0  2  0  0  0  0  0  0  0  0  0
    6.2698   -4.6702    2.9294 H   0  0  0  0  0  0  0  0  0  0  0  0
    7.9249   -5.0620    2.5021 H   0  0  0  0  0  0  0  0  0  0  0  0
    6.6743   -6.2144    2.1648 H   0  0  0  0  0  0  0  0  0  0  0  0
    7.3603   -5.1169    0.1349 H   0  0  0  0  0  0  0  0  0  0  0  0
    8.2903   -3.0988    1.2679 H   0  0  0  0  0  0  0  0  0  0  0  0
    7.5658   -2.8141   -0.2614 H   0  0  0  0  0  0  0  0  0  0  0  0
    6.2448   -2.2787    2.4609 H   0  0  0  0  0  0  0  0  0  0  0  0
    6.8498   -1.0665    1.3691 H   0  0  0  0  0  0  0  0  0  0  0  0
    4.3624   -1.3501    1.2968 H   0  0  0  0  0  0  0  0  0  0  0  0
    5.4122   -0.3146   -0.5769 H   0  0  0  0  0  0  0  0  0  0  0  0
    5.9162   -1.8447   -1.2715 H   0  0  0  0  0  0  0  0  0  0  0  0
    3.0440   -0.8577   -0.9650 H   0  0  0  0  0  0  0  0  0  0  0  0
    3.9723   -1.0659   -2.4622 H   0  0  0  0  0  0  0  0  0  0  0  0
    1.7781   -4.0400   -2.1066 H   0  0  0  0  0  0  0  0  0  0  0  0
    1.5213   -2.3112   -2.3313 H   0  0  0  0  0  0  0  0  0  0  0  0
    1.9751   -3.7725   -4.4255 H   0  0  0  0  0  0  0  0  0  0  0  0
    2.7910   -2.2274   -4.3186 H   0  0  0  0  0  0  0  0  0  0  0  0
    3.8539   -4.7705   -3.6294 H   0  0  0  0  0  0  0  0  0  0  0  0
    5.5176   -4.2682   -0.9095 H   0  0  0  0  0  0  0  0  0  0  0  0
    3.8135   -5.7972   -0.6648 H   0  0  0  0  0  0  0  0  0  0  0  0
    5.2821   -6.6442   -0.2884 H   0  0  0  0  0  0  0  0  0  0  0  0
    3.1489   -7.0849    1.1516 H   0  0  0  0  0  0  0  0  0  0  0  0
    4.6996   -7.0153    1.8858 H   0  0  0  0  0  0  0  0  0  0  0  0
    4.6527   -6.0266    4.0449 H   0  0  0  0  0  0  0  0  0  0  0  0
    3.0490   -6.7411    3.9375 H   0  0  0  0  0  0  0  0  0  0  0  0
    3.2461   -5.1002    4.5276 H   0  0  0  0  0  0  0  0  0  0  0  0
    1.7895   -2.9481    1.7343 H   0  0  0  0  0  0  0  0  0  0  0  0
    2.1564   -3.3607    3.4410 H   0  0  0  0  0  0  0  0  0  0  0  0
    4.3968   -3.4372    2.8784 H   0  0  0  0  0  0  0  0  0  0  0  0
    4.1670   -3.3700   -1.9344 H   0  0  0  0  0  0  0  0  0  0  0  0
  1  2  1  0
  1 22  1  0
  1 23  1  0
  1 24  1  0
  2 14  1  0
  2  3  1  0
  2 25  1  6
  3  4  1  0
  3 26  1  0
  3 27  1  0
  4  5  1  0
  4 28  1  0
  4 29  1  0
  5 13  1  0
  5  6  1  0
  5 30  1  1
  6  7  1  0
  6 31  1  0
  6 32  1  0
  7  8  1  0
  7 33  1  0
  7 34  1  0
  8  9  1  0
  8 12  1  0
  8 51  1  6
  9 10  1  0
  9 35  1  0
  9 36  1  0
 10 11  1  0
 10 37  1  0
 10 38  1  0
 11 39  1  0
 13 12  1  6
 13 21  1  0
 13 14  1  0
 14 15  1  0
 14 40  1  6
 15 16  1  0
 15 41  1  0
 15 42  1  0
 16 17  1  0
 16 43  1  0
 16 44  1  0
 17 21  1  0
 17 18  1  1
 17 19  1  0
 18 45  1  0
 18 46  1  0
 18 47  1  0
 19 20  1  0
 20 21  1  0
 20 48  1  0
 20 49  1  0
 21 50  1  1
M  CHG  1   8   1
M  END
>  <i_m_ct_stereo_status>  (26) 
1

>  <s_m_source_file>  (26) 
/var/tmp/pbs.5076255.sched01/tmpn440o9cr/0yczfkg0t.sdf

>  <i_m_source_file_index>  (26) 
14

>  <i_lp_mmshare_version>  (26) 
48012

>  <i_f3d_flags>  (26) 
0

>  <s_epik_input>  (26) 
TzFbQ0gyXVtDQEhdMltDQF0xKFtDSDNdKVtDSDJdW0NIMl1bQ0BASF0zW0NASF0oW0NIM10pW0NIMl1bQ0gyXVtDQEhdKFtDQF0yMzQpW0NIMl1bQ0gyXU4oTzQpW0NIMl1bQ0gyXVtPSF0=

>  <s_epik_cmdline>  (26) 
J2VwaWtfcHl0aG9uJywgJy1waHQnLCAnMi4wJywgJy1waCcsICc3LjAnLCAnLXRuJywgJzgnLCAnLW1hJywgJzIwMCcsICctaW1hZScsICc8aW5maWxlLm1hZT4nLCAnLW9tYWUnLCAnPG91dGZpbGUubWFlPic=

>  <r_epik_Ionization_Penalty>  (26) 
2.05474

>  <r_epik_Ionization_Penalty_Charging>  (26) 
2.05472

>  <r_epik_Ionization_Penalty_Neutral>  (26) 
1.68157e-05

>  <r_epik_State_Penalty>  (26) 
2.18748

>  <r_epik_Charging_Adjusted_Penalty>  (26) 
4.2422

>  <i_epik_Tot_Q>  (26) 
1

>  <i_epik_Tot_abs_Q>  (26) 
1

>  <s_epik_Chemistry_Notes>  (26) 
This compound has a N-S or N-O group and may undergo hydrolysis at high or low pH.

>  <s_lp_Force_Field>  (26) 
OPLS3e

>  <r_lp_Energy>  (26) 
41.1898

>  <b_lp_Chiralities_Consistent>  (26) 
1

>  <s_lp_Variant>  (26) 
11:0-2

>  <s_i_glide_gridfile>  (26) 
pfpi4k_grid

>  <i_i_glide_lignum>  (26) 
14

>  <i_i_glide_rotatable_bonds>  (26) 
3

>  <r_i_docking_score>  (26) 
-4.45775

>  <r_i_glide_ligand_efficiency>  (26) 
-0.212274

>  <r_i_glide_ligand_efficiency_sa>  (26) 
-0.585647

>  <r_i_glide_ligand_efficiency_ln>  (26) 
-1.10217

>  <r_i_glide_gscore>  (26) 
-4.45775

>  <r_i_glide_lipo>  (26) 
-0.849004

>  <r_i_glide_hbond>  (26) 
-0.32

>  <r_i_glide_metal>  (26) 
-0

>  <r_i_glide_rewards>  (26) 
-1.38801

>  <r_i_glide_evdw>  (26) 
-17.8878

>  <r_i_glide_ecoul>  (26) 
-9.37678

>  <r_i_glide_erotb>  (26) 
0.416985

>  <r_i_glide_esite>  (26) 
-0.0168087

>  <r_i_glide_emodel>  (26) 
-30.8816

>  <r_i_glide_energy>  (26) 
-27.2646

>  <r_i_glide_einternal>  (26) 
8.74464

>  <r_i_glide_intrahb_reward>  (26) 
-0

>  <i_i_glide_confnum>  (26) 
5

>  <i_i_glide_posenum>  (26) 
27

>  <r_i_glide_eff_state_penalty>  (26) 
0

>  <ligand_id>  (26) 
11

>  <original_smiles>  (26) 
CC1CCC2CCN(CCO)OC23C1CCC1(C)OCC13

>  <smiles>  (26) 
[H]OC([H])([H])C([H])([H])[N+]1([H])OC23C([H])(C([H])([H])C([H])([H])C([H])(C([H])([H])[H])C2([H])C([H])([H])C([H])([H])C2(C([H])([H])[H])OC([H])([H])C23[H])C([H])([H])C1([H])[H]

$$$$
11:1:1
     RDKit          3D

 51 54  0  0  1  0  0  0  0  0999 V2000
    6.6083   -5.5763    2.4179 C   0  0  0  0  0  0  0  0  0  0  0  0
    6.5688   -4.9186    1.0233 C   0  0  2  0  0  0  0  0  0  0  0  0
    7.2754   -3.5542    1.0558 C   0  0  0  0  0  0  0  0  0  0  0  0
    6.3845   -2.4506    1.6622 C   0  0  0  0  0  0  0  0  0  0  0  0
    5.0498   -2.2946    0.9067 C   0  0  1  0  0  0  0  0  0  0  0  0
    5.3038   -1.6405   -0.4617 C   0  0  0  0  0  0  0  0  0  0  0  0
    4.0370   -1.6202   -1.2931 C   0  0  0  0  0  0  0  0  0  0  0  0
    3.5290   -3.0048   -1.4083 N   0  0  2  0  0  0  0  0  0  0  0  0
    2.4120   -3.1139   -2.3733 C   0  0  0  0  0  0  0  0  0  0  0  0
    2.8858   -3.3598   -3.8166 C   0  0  0  0  0  0  0  0  0  0  0  0
    3.6143   -2.2526   -4.3170 O   0  0  0  0  0  0  0  0  0  0  0  0
    3.1434   -3.5052   -0.1012 O   0  0  0  0  0  0  0  0  0  0  0  0
    4.2720   -3.6458    0.7964 C   0  0  1  0  0  0  0  0  0  0  0  0
    5.1892   -4.8019    0.3011 C   0  0  2  0  0  0  0  0  0  0  0  0
    4.3830   -6.1140    0.1885 C   0  0  0  0  0  0  0  0  0  0  0  0
    3.6379   -6.5862    1.4553 C   0  0  0  0  0  0  0  0  0  0  0  0
    3.1783   -5.4750    2.4111 C   0  0  2  0  0  0  0  0  0  0  0  0
    3.2063   -6.0098    3.8523 C   0  0  0  0  0  0  0  0  0  0  0  0
    1.8062   -5.0811    2.1334 O   0  0  0  0  0  0  0  0  0  0  0  0
    2.1676   -3.7060    2.4273 C   0  0  0  0  0  0  0  0  0  0  0  0
    3.6370   -4.0268    2.1595 C   0  0  2  0  0  0  0  0  0  0  0  0
    5.9907   -5.0587    3.1482 H   0  0  0  0  0  0  0  0  0  0  0  0
    7.6259   -5.5742    2.8128 H   0  0  0  0  0  0  0  0  0  0  0  0
    6.3114   -6.6227    2.3836 H   0  0  0  0  0  0  0  0  0  0  0  0
    7.1870   -5.5676    0.4027 H   0  0  0  0  0  0  0  0  0  0  0  0
    8.2039   -3.6440    1.6173 H   0  0  0  0  0  0  0  0  0  0  0  0
    7.5876   -3.2808    0.0489 H   0  0  0  0  0  0  0  0  0  0  0  0
    6.1904   -2.6728    2.7106 H   0  0  0  0  0  0  0  0  0  0  0  0
    6.9234   -1.5005    1.6602 H   0  0  0  0  0  0  0  0  0  0  0  0
    4.4293   -1.5925    1.4694 H   0  0  0  0  0  0  0  0  0  0  0  0
    5.6628   -0.6174   -0.3291 H   0  0  0  0  0  0  0  0  0  0  0  0
    6.0735   -2.1742   -1.0225 H   0  0  0  0  0  0  0  0  0  0  0  0
    3.2762   -0.9820   -0.8358 H   0  0  0  0  0  0  0  0  0  0  0  0
    4.2957   -1.1811   -2.2535 H   0  0  0  0  0  0  0  0  0  0  0  0
    1.7682   -3.9435   -2.0795 H   0  0  0  0  0  0  0  0  0  0  0  0
    1.7972   -2.2208   -2.3269 H   0  0  0  0  0  0  0  0  0  0  0  0
    3.5011   -4.2561   -3.9039 H   0  0  0  0  0  0  0  0  0  0  0  0
    2.0148   -3.5043   -4.4587 H   0  0  0  0  0  0  0  0  0  0  0  0
    3.0277   -1.5096   -4.3512 H   0  0  0  0  0  0  0  0  0  0  0  0
    5.4731   -4.5646   -0.7234 H   0  0  0  0  0  0  0  0  0  0  0  0
    3.6294   -5.9521   -0.5766 H   0  0  0  0  0  0  0  0  0  0  0  0
    5.0133   -6.9168   -0.1897 H   0  0  0  0  0  0  0  0  0  0  0  0
    2.7912   -7.2112    1.1687 H   0  0  0  0  0  0  0  0  0  0  0  0
    4.3025   -7.2726    1.9794 H   0  0  0  0  0  0  0  0  0  0  0  0
    4.2139   -6.3012    4.1539 H   0  0  0  0  0  0  0  0  0  0  0  0
    2.5692   -6.8874    3.9560 H   0  0  0  0  0  0  0  0  0  0  0  0
    2.8620   -5.2734    4.5759 H   0  0  0  0  0  0  0  0  0  0  0  0
    1.7276   -2.9774    1.7525 H   0  0  0  0  0  0  0  0  0  0  0  0
    1.9625   -3.4400    3.4659 H   0  0  0  0  0  0  0  0  0  0  0  0
    4.2277   -3.6889    3.0103 H   0  0  0  0  0  0  0  0  0  0  0  0
    4.2672   -3.5750   -1.7980 H   0  0  0  0  0  0  0  0  0  0  0  0
  1  2  1  0
  1 22  1  0
  1 23  1  0
  1 24  1  0
  2 14  1  0
  2  3  1  0
  2 25  1  6
  3  4  1  0
  3 26  1  0
  3 27  1  0
  4  5  1  0
  4 28  1  0
  4 29  1  0
  5 13  1  0
  5  6  1  0
  5 30  1  1
  6  7  1  0
  6 31  1  0
  6 32  1  0
  7  8  1  0
  7 33  1  0
  7 34  1  0
  8  9  1  0
  8 12  1  0
  8 51  1  6
  9 10  1  0
  9 35  1  0
  9 36  1  0
 10 11  1  0
 10 37  1  0
 10 38  1  0
 11 39  1  0
 13 12  1  6
 13 21  1  0
 13 14  1  0
 14 15  1  0
 14 40  1  6
 15 16  1  0
 15 41  1  0
 15 42  1  0
 16 17  1  0
 16 43  1  0
 16 44  1  0
 17 21  1  0
 17 18  1  1
 17 19  1  0
 18 45  1  0
 18 46  1  0
 18 47  1  0
 19 20  1  0
 20 21  1  0
 20 48  1  0
 20 49  1  0
 21 50  1  1
M  CHG  1   8   1
M  END
>  <i_m_ct_stereo_status>  (27) 
1

>  <s_m_source_file>  (27) 
/var/tmp/pbs.5076255.sched01/tmpn440o9cr/0yczfkg0t.sdf

>  <i_m_source_file_index>  (27) 
14

>  <i_lp_mmshare_version>  (27) 
48012

>  <i_f3d_flags>  (27) 
0

>  <s_epik_input>  (27) 
TzFbQ0gyXVtDQEhdMltDQF0xKFtDSDNdKVtDSDJdW0NIMl1bQ0BASF0zW0NASF0oW0NIM10pW0NIMl1bQ0gyXVtDQEhdKFtDQF0yMzQpW0NIMl1bQ0gyXU4oTzQpW0NIMl1bQ0gyXVtPSF0=

>  <s_epik_cmdline>  (27) 
J2VwaWtfcHl0aG9uJywgJy1waHQnLCAnMi4wJywgJy1waCcsICc3LjAnLCAnLXRuJywgJzgnLCAnLW1hJywgJzIwMCcsICctaW1hZScsICc8aW5maWxlLm1hZT4nLCAnLW9tYWUnLCAnPG91dGZpbGUubWFlPic=

>  <r_epik_Ionization_Penalty>  (27) 
2.05474

>  <r_epik_Ionization_Penalty_Charging>  (27) 
2.05472

>  <r_epik_Ionization_Penalty_Neutral>  (27) 
1.68157e-05

>  <r_epik_State_Penalty>  (27) 
2.18748

>  <r_epik_Charging_Adjusted_Penalty>  (27) 
4.2422

>  <i_epik_Tot_Q>  (27) 
1

>  <i_epik_Tot_abs_Q>  (27) 
1

>  <s_epik_Chemistry_Notes>  (27) 
This compound has a N-S or N-O group and may undergo hydrolysis at high or low pH.

>  <s_lp_Force_Field>  (27) 
OPLS3e

>  <r_lp_Energy>  (27) 
41.1898

>  <b_lp_Chiralities_Consistent>  (27) 
1

>  <s_lp_Variant>  (27) 
11:0-2

>  <s_i_glide_gridfile>  (27) 
pfpi4k_grid

>  <i_i_glide_lignum>  (27) 
14

>  <i_i_glide_rotatable_bonds>  (27) 
3

>  <r_i_docking_score>  (27) 
-4.24864

>  <r_i_glide_ligand_efficiency>  (27) 
-0.202316

>  <r_i_glide_ligand_efficiency_sa>  (27) 
-0.558176

>  <r_i_glide_ligand_efficiency_ln>  (27) 
-1.05047

>  <r_i_glide_gscore>  (27) 
-4.24864

>  <r_i_glide_lipo>  (27) 
-0.757453

>  <r_i_glide_hbond>  (27) 
-0.327906

>  <r_i_glide_metal>  (27) 
-0

>  <r_i_glide_rewards>  (27) 
-1.38801

>  <r_i_glide_evdw>  (27) 
-17.2599

>  <r_i_glide_ecoul>  (27) 
-8.80988

>  <r_i_glide_erotb>  (27) 
0.416985

>  <r_i_glide_esite>  (27) 
-0.00778109

>  <r_i_glide_emodel>  (27) 
-31.9661

>  <r_i_glide_energy>  (27) 
-26.0698

>  <r_i_glide_einternal>  (27) 
4.56439

>  <r_i_glide_intrahb_reward>  (27) 
-0

>  <i_i_glide_confnum>  (27) 
5

>  <i_i_glide_posenum>  (27) 
1

>  <r_i_glide_eff_state_penalty>  (27) 
0

>  <ligand_id>  (27) 
11

>  <original_smiles>  (27) 
CC1CCC2CCN(CCO)OC23C1CCC1(C)OCC13

>  <smiles>  (27) 
[H]OC([H])([H])C([H])([H])[N+]1([H])OC23C([H])(C([H])([H])C([H])([H])C([H])(C([H])([H])[H])C2([H])C([H])([H])C([H])([H])C2(C([H])([H])[H])OC([H])([H])C23[H])C([H])([H])C1([H])[H]

$$$$
11:1:2
     RDKit          3D

 51 54  0  0  1  0  0  0  0  0999 V2000
    2.9752   -3.1988    3.9333 C   0  0  0  0  0  0  0  0  0  0  0  0
    2.7452   -3.8222    2.5428 C   0  0  2  0  0  0  0  0  0  0  0  0
    3.3752   -5.2247    2.4744 C   0  0  0  0  0  0  0  0  0  0  0  0
    4.8978   -5.1688    2.2524 C   0  0  0  0  0  0  0  0  0  0  0  0
    5.2737   -4.3968    0.9675 C   0  0  1  0  0  0  0  0  0  0  0  0
    4.8978   -5.2182   -0.2816 C   0  0  0  0  0  0  0  0  0  0  0  0
    5.1037   -4.4068   -1.5512 C   0  0  0  0  0  0  0  0  0  0  0  0
    4.3291   -3.1612   -1.4405 N   0  0  2  0  0  0  0  0  0  0  0  0
    4.3265   -2.4107   -2.7169 C   0  0  0  0  0  0  0  0  0  0  0  0
    3.3524   -1.2264   -2.6875 C   0  0  0  0  0  0  0  0  0  0  0  0
    3.5795   -0.3756   -3.7922 O   0  0  0  0  0  0  0  0  0  0  0  0
    4.8492   -2.3478   -0.3524 O   0  0  0  0  0  0  0  0  0  0  0  0
    4.6537   -2.9635    0.9451 C   0  0  1  0  0  0  0  0  0  0  0  0
    3.1361   -2.9811    1.2855 C   0  0  2  0  0  0  0  0  0  0  0  0
    2.5569   -1.5494    1.2350 C   0  0  0  0  0  0  0  0  0  0  0  0
    3.2390   -0.4878    2.1159 C   0  0  0  0  0  0  0  0  0  0  0  0
    4.7310   -0.7123    2.3780 C   0  0  2  0  0  0  0  0  0  0  0  0
    5.0909   -0.1438    3.7604 C   0  0  0  0  0  0  0  0  0  0  0  0
    5.5023    0.0090    1.3842 O   0  0  0  0  0  0  0  0  0  0  0  0
    6.4645   -1.0726    1.3811 C   0  0  0  0  0  0  0  0  0  0  0  0
    5.3996   -2.0239    1.9228 C   0  0  2  0  0  0  0  0  0  0  0  0
    4.0178   -2.9509    4.1181 H   0  0  0  0  0  0  0  0  0  0  0  0
    2.6767   -3.8969    4.7167 H   0  0  0  0  0  0  0  0  0  0  0  0
    2.3691   -2.3084    4.0868 H   0  0  0  0  0  0  0  0  0  0  0  0
    1.6665   -3.9656    2.4854 H   0  0  0  0  0  0  0  0  0  0  0  0
    3.1579   -5.7788    3.3884 H   0  0  0  0  0  0  0  0  0  0  0  0
    2.8982   -5.7964    1.6802 H   0  0  0  0  0  0  0  0  0  0  0  0
    5.3708   -4.7113    3.1226 H   0  0  0  0  0  0  0  0  0  0  0  0
    5.2952   -6.1839    2.2055 H   0  0  0  0  0  0  0  0  0  0  0  0
    6.3618   -4.2927    0.9571 H   0  0  0  0  0  0  0  0  0  0  0  0
    5.5045   -6.1230   -0.3223 H   0  0  0  0  0  0  0  0  0  0  0  0
    3.8592   -5.5483   -0.2428 H   0  0  0  0  0  0  0  0  0  0  0  0
    6.1580   -4.1633   -1.6874 H   0  0  0  0  0  0  0  0  0  0  0  0
    4.7909   -4.9838   -2.4197 H   0  0  0  0  0  0  0  0  0  0  0  0
    5.3404   -2.0579   -2.9221 H   0  0  0  0  0  0  0  0  0  0  0  0
    4.0443   -3.0716   -3.5401 H   0  0  0  0  0  0  0  0  0  0  0  0
    2.3147   -1.5651   -2.7057 H   0  0  0  0  0  0  0  0  0  0  0  0
    3.4965   -0.6529   -1.7757 H   0  0  0  0  0  0  0  0  0  0  0  0
    3.0327    0.3949   -3.6899 H   0  0  0  0  0  0  0  0  0  0  0  0
    2.6393   -3.5105    0.4737 H   0  0  0  0  0  0  0  0  0  0  0  0
    2.6403   -1.2046    0.2063 H   0  0  0  0  0  0  0  0  0  0  0  0
    1.4867   -1.5685    1.4420 H   0  0  0  0  0  0  0  0  0  0  0  0
    3.0808    0.4998    1.6805 H   0  0  0  0  0  0  0  0  0  0  0  0
    2.6979   -0.4502    3.0607 H   0  0  0  0  0  0  0  0  0  0  0  0
    4.5463   -0.6576    4.5554 H   0  0  0  0  0  0  0  0  0  0  0  0
    4.8390    0.9140    3.8284 H   0  0  0  0  0  0  0  0  0  0  0  0
    6.1496   -0.2406    3.9922 H   0  0  0  0  0  0  0  0  0  0  0  0
    6.8638   -1.3066    0.3973 H   0  0  0  0  0  0  0  0  0  0  0  0
    7.2753   -0.8968    2.0781 H   0  0  0  0  0  0  0  0  0  0  0  0
    5.7898   -2.5422    2.8000 H   0  0  0  0  0  0  0  0  0  0  0  0
    3.3709   -3.4285   -1.2679 H   0  0  0  0  0  0  0  0  0  0  0  0
  1  2  1  0
  1 22  1  0
  1 23  1  0
  1 24  1  0
  2 14  1  0
  2  3  1  0
  2 25  1  6
  3  4  1  0
  3 26  1  0
  3 27  1  0
  4  5  1  0
  4 28  1  0
  4 29  1  0
  5 13  1  0
  5  6  1  0
  5 30  1  1
  6  7  1  0
  6 31  1  0
  6 32  1  0
  7  8  1  0
  7 33  1  0
  7 34  1  0
  8  9  1  0
  8 12  1  0
  8 51  1  1
  9 10  1  0
  9 35  1  0
  9 36  1  0
 10 11  1  0
 10 37  1  0
 10 38  1  0
 11 39  1  0
 13 12  1  6
 13 21  1  0
 13 14  1  0
 14 15  1  0
 14 40  1  6
 15 16  1  0
 15 41  1  0
 15 42  1  0
 16 17  1  0
 16 43  1  0
 16 44  1  0
 17 21  1  0
 17 18  1  1
 17 19  1  0
 18 45  1  0
 18 46  1  0
 18 47  1  0
 19 20  1  0
 20 21  1  0
 20 48  1  0
 20 49  1  0
 21 50  1  1
M  CHG  1   8   1
M  END
>  <i_m_ct_stereo_status>  (28) 
1

>  <s_m_source_file>  (28) 
/var/tmp/pbs.5076255.sched01/tmpn440o9cr/0yczfkg0t.sdf

>  <i_m_source_file_index>  (28) 
14

>  <i_lp_mmshare_version>  (28) 
48012

>  <i_f3d_flags>  (28) 
0

>  <s_epik_input>  (28) 
TzFbQ0gyXVtDQEhdMltDQF0xKFtDSDNdKVtDSDJdW0NIMl1bQ0BASF0zW0NASF0oW0NIM10pW0NIMl1bQ0gyXVtDQEhdKFtDQF0yMzQpW0NIMl1bQ0gyXU4oTzQpW0NIMl1bQ0gyXVtPSF0=

>  <s_epik_cmdline>  (28) 
J2VwaWtfcHl0aG9uJywgJy1waHQnLCAnMi4wJywgJy1waCcsICc3LjAnLCAnLXRuJywgJzgnLCAnLW1hJywgJzIwMCcsICctaW1hZScsICc8aW5maWxlLm1hZT4nLCAnLW9tYWUnLCAnPG91dGZpbGUubWFlPic=

>  <r_epik_Ionization_Penalty>  (28) 
2.05474

>  <r_epik_Ionization_Penalty_Charging>  (28) 
2.05472

>  <r_epik_Ionization_Penalty_Neutral>  (28) 
1.68157e-05

>  <r_epik_State_Penalty>  (28) 
2.18748

>  <r_epik_Charging_Adjusted_Penalty>  (28) 
4.2422

>  <i_epik_Tot_Q>  (28) 
1

>  <i_epik_Tot_abs_Q>  (28) 
1

>  <s_epik_Chemistry_Notes>  (28) 
This compound has a N-S or N-O group and may undergo hydrolysis at high or low pH.

>  <s_lp_Force_Field>  (28) 
OPLS3e

>  <r_lp_Energy>  (28) 
41.1898

>  <b_lp_Chiralities_Consistent>  (28) 
1

>  <s_lp_Variant>  (28) 
11:0-2

>  <s_i_glide_gridfile>  (28) 
pfpi4k_grid

>  <i_i_glide_lignum>  (28) 
14

>  <i_i_glide_rotatable_bonds>  (28) 
3

>  <r_i_docking_score>  (28) 
-3.72456

>  <r_i_glide_ligand_efficiency>  (28) 
-0.17736

>  <r_i_glide_ligand_efficiency_sa>  (28) 
-0.489323

>  <r_i_glide_ligand_efficiency_ln>  (28) 
-0.92089

>  <r_i_glide_gscore>  (28) 
-3.72456

>  <r_i_glide_lipo>  (28) 
-0.564453

>  <r_i_glide_hbond>  (28) 
-0.287788

>  <r_i_glide_metal>  (28) 
-0

>  <r_i_glide_rewards>  (28) 
-1.38801

>  <r_i_glide_evdw>  (28) 
-15.8903

>  <r_i_glide_ecoul>  (28) 
-7.31634

>  <r_i_glide_erotb>  (28) 
0.416985

>  <r_i_glide_esite>  (28) 
-0.00932856

>  <r_i_glide_emodel>  (28) 
-30.0512

>  <r_i_glide_energy>  (28) 
-23.2066

>  <r_i_glide_einternal>  (28) 
0.705799

>  <r_i_glide_intrahb_reward>  (28) 
-0

>  <i_i_glide_confnum>  (28) 
4

>  <i_i_glide_posenum>  (28) 
2

>  <r_i_glide_eff_state_penalty>  (28) 
0

>  <ligand_id>  (28) 
11

>  <original_smiles>  (28) 
CC1CCC2CCN(CCO)OC23C1CCC1(C)OCC13

>  <smiles>  (28) 
[H]OC([H])([H])C([H])([H])[N+]1([H])OC23C([H])(C([H])([H])C([H])([H])C([H])(C([H])([H])[H])C2([H])C([H])([H])C([H])([H])C2(C([H])([H])[H])OC([H])([H])C23[H])C([H])([H])C1([H])[H]

$$$$
12:0:0
     RDKit          3D

 42 46  0  0  1  0  0  0  0  0999 V2000
    5.4231   -0.2735    1.7628 O   0  0  0  0  0  0  0  0  0  0  0  0
    4.9239   -1.3737    2.0454 C   0  0  0  0  0  0  0  0  0  0  0  0
    4.3505   -1.6747    3.2386 N   0  0  0  0  0  0  0  0  0  0  0  0
    4.3643   -1.0484    4.4445 C   0  0  0  0  0  0  0  0  0  0  0  0
    3.9040   -1.7928    5.5734 C   0  0  0  0  0  0  0  0  0  0  0  0
    3.5538   -3.1118    5.4934 N   0  0  0  0  0  0  0  0  0  0  0  0
    3.5080   -3.6490    4.2482 C   0  0  0  0  0  0  0  0  0  0  0  0
    3.8177   -2.8674    3.1665 C   0  0  0  0  0  0  0  0  0  0  0  0
    3.8091   -3.5026    1.8543 C   0  0  2  0  0  0  0  0  0  0  0  0
    3.7798   -4.9452    2.3955 C   0  0  0  0  0  0  0  0  0  0  0  0
    3.5062   -5.0084    3.7225 C   0  0  0  0  0  0  0  0  0  0  0  0
    4.9462   -2.6702    1.1049 C   0  0  1  0  0  0  0  0  0  0  0  0
    4.4746   -2.3771   -0.3386 C   0  0  0  0  0  0  0  0  0  0  0  0
    4.8906   -1.2200   -1.0398 C   0  0  0  0  0  0  0  0  0  0  0  0
    4.5372   -1.0112   -2.3787 C   0  0  0  0  0  0  0  0  0  0  0  0
    3.7424   -1.9503   -3.0583 C   0  0  0  0  0  0  0  0  0  0  0  0
    3.3167   -3.1053   -2.3884 C   0  0  0  0  0  0  0  0  0  0  0  0
    3.6901   -3.3240   -1.0506 C   0  0  0  0  0  0  0  0  0  0  0  0
    6.3175   -3.2580    1.0831 N   0  0  0  0  0  0  0  0  0  0  0  0
    6.3756   -4.6131    0.5095 C   0  0  0  0  0  0  0  0  0  0  0  0
    7.8005   -5.1955    0.4926 C   0  0  0  0  0  0  0  0  0  0  0  0
    8.6720   -4.3533   -0.2584 O   0  0  0  0  0  0  0  0  0  0  0  0
    8.7324   -3.0460    0.2964 C   0  0  0  0  0  0  0  0  0  0  0  0
    7.3253   -2.4264    0.3721 C   0  0  0  0  0  0  0  0  0  0  0  0
    4.7671   -0.0414    4.4724 H   0  0  0  0  0  0  0  0  0  0  0  0
    3.8609   -1.3402    6.5592 H   0  0  0  0  0  0  0  0  0  0  0  0
    2.8317   -3.2801    1.4420 H   0  0  0  0  0  0  0  0  0  0  0  0
    3.8042   -5.7982    1.7346 H   0  0  0  0  0  0  0  0  0  0  0  0
    3.3107   -5.8910    4.3116 H   0  0  0  0  0  0  0  0  0  0  0  0
    5.5056   -0.4730   -0.5716 H   0  0  0  0  0  0  0  0  0  0  0  0
    4.8981   -0.1386   -2.8886 H   0  0  0  0  0  0  0  0  0  0  0  0
    3.4930   -1.8066   -4.0941 H   0  0  0  0  0  0  0  0  0  0  0  0
    2.7343   -3.8501   -2.9053 H   0  0  0  0  0  0  0  0  0  0  0  0
    3.4029   -4.2541   -0.5940 H   0  0  0  0  0  0  0  0  0  0  0  0
    5.7962   -5.3222    1.0933 H   0  0  0  0  0  0  0  0  0  0  0  0
    5.9830   -4.6128   -0.5114 H   0  0  0  0  0  0  0  0  0  0  0  0
    8.1738   -5.3158    1.5128 H   0  0  0  0  0  0  0  0  0  0  0  0
    7.7691   -6.1925    0.0533 H   0  0  0  0  0  0  0  0  0  0  0  0
    9.2125   -3.0830    1.2709 H   0  0  0  0  0  0  0  0  0  0  0  0
    9.3696   -2.4153   -0.3232 H   0  0  0  0  0  0  0  0  0  0  0  0
    7.0404   -2.3175   -0.6760 H   0  0  0  0  0  0  0  0  0  0  0  0
    7.4130   -1.4274    0.8036 H   0  0  0  0  0  0  0  0  0  0  0  0
  1  2  2  0
  2 12  1  0
  2  3  1  0
  3  8  2  0
  3  4  1  0
  4  5  2  0
  4 25  1  0
  5  6  1  0
  5 26  1  0
  6  7  2  0
  7 11  1  0
  7  8  1  0
  8  9  1  0
  9 10  1  0
  9 12  1  0
  9 27  1  6
 10 11  2  0
 10 28  1  0
 11 29  1  0
 12 13  1  0
 12 19  1  6
 13 18  1  0
 13 14  2  0
 14 15  1  0
 14 30  1  0
 15 16  2  0
 15 31  1  0
 16 17  1  0
 16 32  1  0
 17 18  2  0
 17 33  1  0
 18 34  1  0
 19 24  1  0
 19 20  1  0
 20 21  1  0
 20 35  1  0
 20 36  1  0
 21 22  1  0
 21 37  1  0
 21 38  1  0
 22 23  1  0
 23 24  1  0
 23 39  1  0
 23 40  1  0
 24 41  1  0
 24 42  1  0
M  CHG  1   3   1
M  END
>  <i_m_ct_stereo_status>  (29) 
1

>  <s_m_source_file>  (29) 
/var/tmp/pbs.5076255.sched01/tmpn440o9cr/0yczfkg0t.sdf

>  <i_m_source_file_index>  (29) 
15

>  <i_lp_mmshare_version>  (29) 
48012

>  <i_f3d_flags>  (29) 
0

>  <s_epik_input>  (29) 
W2NIXTFbY0hdW2NIXVtjSF1bY0hdYzFbQ0BdKEMyPU8pKE4zW0NIMl1bQ0gyXU9bQ0gyXVtDSDJdMylbQ0BIXTRbQ0hdPVtDSF1jKGM0W24rXTI1KW5bY0hdW2NIXTU=

>  <s_epik_cmdline>  (29) 
J2VwaWtfcHl0aG9uJywgJy1waHQnLCAnMi4wJywgJy1waCcsICc3LjAnLCAnLXRuJywgJzgnLCAnLW1hJywgJzIwMCcsICctaW1hZScsICc8aW5maWxlLm1hZT4nLCAnLW9tYWUnLCAnPG91dGZpbGUubWFlPic=

>  <r_lp_tautomer_probability>  (29) 
1

>  <r_epik_Ionization_Penalty>  (29) 
3.39359e-06

>  <r_epik_Ionization_Penalty_Charging>  (29) 
0

>  <r_epik_Ionization_Penalty_Neutral>  (29) 
3.39359e-06

>  <r_epik_State_Penalty>  (29) 
-0

>  <r_epik_Charging_Adjusted_Penalty>  (29) 
0

>  <i_epik_Tot_Q>  (29) 
1

>  <i_epik_Tot_abs_Q>  (29) 
1

>  <s_lp_Force_Field>  (29) 
OPLS3e

>  <r_lp_Energy>  (29) 
71.934

>  <b_lp_Chiralities_Consistent>  (29) 
1

>  <s_lp_Variant>  (29) 
12:0-1

>  <s_i_glide_gridfile>  (29) 
pfpi4k_grid

>  <i_i_glide_lignum>  (29) 
15

>  <i_i_glide_rotatable_bonds>  (29) 
2

>  <r_i_docking_score>  (29) 
-3.61977

>  <r_i_glide_ligand_efficiency>  (29) 
-0.150824

>  <r_i_glide_ligand_efficiency_sa>  (29) 
-0.435051

>  <r_i_glide_ligand_efficiency_ln>  (29) 
-0.866377

>  <r_i_glide_gscore>  (29) 
-3.61977

>  <r_i_glide_lipo>  (29) 
-0.6702

>  <r_i_glide_hbond>  (29) 
-0.222371

>  <r_i_glide_metal>  (29) 
-0

>  <r_i_glide_rewards>  (29) 
-1.35791

>  <r_i_glide_evdw>  (29) 
-25.9541

>  <r_i_glide_ecoul>  (29) 
-2.90292

>  <r_i_glide_erotb>  (29) 
0.363852

>  <r_i_glide_esite>  (29) 
0

>  <r_i_glide_emodel>  (29) 
-34.9395

>  <r_i_glide_energy>  (29) 
-28.857

>  <r_i_glide_einternal>  (29) 
2.6605

>  <r_i_glide_intrahb_reward>  (29) 
-0

>  <i_i_glide_confnum>  (29) 
6

>  <i_i_glide_posenum>  (29) 
11

>  <r_i_glide_eff_state_penalty>  (29) 
0

>  <ligand_id>  (29) 
12

>  <original_smiles>  (29) 
O=C1[n+]2ccnc3c2C(C=C3)C1(c1ccccc1)N1CCOCC1

>  <smiles>  (29) 
[H]C1=C([H])C2([H])c3c1nc([H])c([H])[n+]3C(=O)C2(c1c([H])c([H])c([H])c([H])c1[H])N1C([H])([H])C([H])([H])OC([H])([H])C1([H])[H]

$$$$
12:0:1
     RDKit          3D

 42 46  0  0  1  0  0  0  0  0999 V2000
    4.2918   -0.4204    0.9718 O   0  0  0  0  0  0  0  0  0  0  0  0
    4.1217   -1.6380    0.8715 C   0  0  0  0  0  0  0  0  0  0  0  0
    3.6174   -2.4540    1.8462 N   0  0  0  0  0  0  0  0  0  0  0  0
    3.3908   -2.2409    3.1739 C   0  0  0  0  0  0  0  0  0  0  0  0
    3.2219   -3.3906    3.9980 C   0  0  0  0  0  0  0  0  0  0  0  0
    3.3674   -4.6645    3.5224 N   0  0  0  0  0  0  0  0  0  0  0  0
    3.5109   -4.7976    2.1771 C   0  0  0  0  0  0  0  0  0  0  0  0
    3.5334   -3.6768    1.3923 C   0  0  0  0  0  0  0  0  0  0  0  0
    3.8200   -3.8752   -0.0272 C   0  0  2  0  0  0  0  0  0  0  0  0
    4.3026   -5.3259    0.1008 C   0  0  0  0  0  0  0  0  0  0  0  0
    4.0310   -5.8586    1.3201 C   0  0  0  0  0  0  0  0  0  0  0  0
    4.6169   -2.5462   -0.3459 C   0  0  1  0  0  0  0  0  0  0  0  0
    4.1492   -2.0134   -1.7195 C   0  0  0  0  0  0  0  0  0  0  0  0
    4.2460   -0.6604   -2.0573 C   0  0  0  0  0  0  0  0  0  0  0  0
    3.8601   -0.1761   -3.3162 C   0  0  0  0  0  0  0  0  0  0  0  0
    3.4019   -1.0692   -4.2930 C   0  0  0  0  0  0  0  0  0  0  0  0
    3.3318   -2.4371   -3.9925 C   0  0  0  0  0  0  0  0  0  0  0  0
    3.7234   -2.9055   -2.7306 C   0  0  0  0  0  0  0  0  0  0  0  0
    6.0994   -2.6221   -0.3232 N   0  0  0  0  0  0  0  0  0  0  0  0
    6.6956   -3.2210    0.8870 C   0  0  0  0  0  0  0  0  0  0  0  0
    8.2347   -3.3132    0.8344 C   0  0  0  0  0  0  0  0  0  0  0  0
    8.6536   -4.0003   -0.3281 O   0  0  0  0  0  0  0  0  0  0  0  0
    8.2033   -3.3535   -1.5052 C   0  0  0  0  0  0  0  0  0  0  0  0
    6.6625   -3.2685   -1.5141 C   0  0  0  0  0  0  0  0  0  0  0  0
    3.4443   -1.2185    3.5284 H   0  0  0  0  0  0  0  0  0  0  0  0
    3.0150   -3.2939    5.0621 H   0  0  0  0  0  0  0  0  0  0  0  0
    2.8403   -3.8766   -0.4869 H   0  0  0  0  0  0  0  0  0  0  0  0
    4.6803   -5.8630   -0.7531 H   0  0  0  0  0  0  0  0  0  0  0  0
    4.1717   -6.8817    1.6195 H   0  0  0  0  0  0  0  0  0  0  0  0
    4.6147    0.0655   -1.3488 H   0  0  0  0  0  0  0  0  0  0  0  0
    3.9219    0.8729   -3.5345 H   0  0  0  0  0  0  0  0  0  0  0  0
    3.1102   -0.7044   -5.2603 H   0  0  0  0  0  0  0  0  0  0  0  0
    2.9993   -3.1475   -4.7254 H   0  0  0  0  0  0  0  0  0  0  0  0
    3.6937   -3.9619   -2.5511 H   0  0  0  0  0  0  0  0  0  0  0  0
    6.4283   -2.6489    1.7810 H   0  0  0  0  0  0  0  0  0  0  0  0
    6.3467   -4.2472    1.0196 H   0  0  0  0  0  0  0  0  0  0  0  0
    8.6931   -2.3172    0.8625 H   0  0  0  0  0  0  0  0  0  0  0  0
    8.5897   -3.8777    1.6980 H   0  0  0  0  0  0  0  0  0  0  0  0
    8.6377   -2.3569   -1.5752 H   0  0  0  0  0  0  0  0  0  0  0  0
    8.5697   -3.9335   -2.3505 H   0  0  0  0  0  0  0  0  0  0  0  0
    6.2155   -4.2517   -1.6120 H   0  0  0  0  0  0  0  0  0  0  0  0
    6.4059   -2.7397   -2.4314 H   0  0  0  0  0  0  0  0  0  0  0  0
  1  2  2  0
  2 12  1  0
  2  3  1  0
  3  8  2  0
  3  4  1  0
  4  5  2  0
  4 25  1  0
  5  6  1  0
  5 26  1  0
  6  7  2  0
  7 11  1  0
  7  8  1  0
  8  9  1  0
  9 10  1  0
  9 12  1  0
  9 27  1  6
 10 11  2  0
 10 28  1  0
 11 29  1  0
 12 13  1  0
 12 19  1  6
 13 18  1  0
 13 14  2  0
 14 15  1  0
 14 30  1  0
 15 16  2  0
 15 31  1  0
 16 17  1  0
 16 32  1  0
 17 18  2  0
 17 33  1  0
 18 34  1  0
 19 24  1  0
 19 20  1  0
 20 21  1  0
 20 35  1  0
 20 36  1  0
 21 22  1  0
 21 37  1  0
 21 38  1  0
 22 23  1  0
 23 24  1  0
 23 39  1  0
 23 40  1  0
 24 41  1  0
 24 42  1  0
M  CHG  1   3   1
M  END
>  <i_m_ct_stereo_status>  (30) 
1

>  <s_m_source_file>  (30) 
/var/tmp/pbs.5076255.sched01/tmpn440o9cr/0yczfkg0t.sdf

>  <i_m_source_file_index>  (30) 
15

>  <i_lp_mmshare_version>  (30) 
48012

>  <i_f3d_flags>  (30) 
0

>  <s_epik_input>  (30) 
W2NIXTFbY0hdW2NIXVtjSF1bY0hdYzFbQ0BdKEMyPU8pKE4zW0NIMl1bQ0gyXU9bQ0gyXVtDSDJdMylbQ0BIXTRbQ0hdPVtDSF1jKGM0W24rXTI1KW5bY0hdW2NIXTU=

>  <s_epik_cmdline>  (30) 
J2VwaWtfcHl0aG9uJywgJy1waHQnLCAnMi4wJywgJy1waCcsICc3LjAnLCAnLXRuJywgJzgnLCAnLW1hJywgJzIwMCcsICctaW1hZScsICc8aW5maWxlLm1hZT4nLCAnLW9tYWUnLCAnPG91dGZpbGUubWFlPic=

>  <r_lp_tautomer_probability>  (30) 
1

>  <r_epik_Ionization_Penalty>  (30) 
3.39359e-06

>  <r_epik_Ionization_Penalty_Charging>  (30) 
0

>  <r_epik_Ionization_Penalty_Neutral>  (30) 
3.39359e-06

>  <r_epik_State_Penalty>  (30) 
-0

>  <r_epik_Charging_Adjusted_Penalty>  (30) 
0

>  <i_epik_Tot_Q>  (30) 
1

>  <i_epik_Tot_abs_Q>  (30) 
1

>  <s_lp_Force_Field>  (30) 
OPLS3e

>  <r_lp_Energy>  (30) 
71.934

>  <b_lp_Chiralities_Consistent>  (30) 
1

>  <s_lp_Variant>  (30) 
12:0-1

>  <s_i_glide_gridfile>  (30) 
pfpi4k_grid

>  <i_i_glide_lignum>  (30) 
15

>  <i_i_glide_rotatable_bonds>  (30) 
2

>  <r_i_docking_score>  (30) 
-3.60212

>  <r_i_glide_ligand_efficiency>  (30) 
-0.150088

>  <r_i_glide_ligand_efficiency_sa>  (30) 
-0.432929

>  <r_i_glide_ligand_efficiency_ln>  (30) 
-0.862152

>  <r_i_glide_gscore>  (30) 
-3.60212

>  <r_i_glide_lipo>  (30) 
-0.63602

>  <r_i_glide_hbond>  (30) 
-0.00653115

>  <r_i_glide_metal>  (30) 
-0

>  <r_i_glide_rewards>  (30) 
-1.22478

>  <r_i_glide_evdw>  (30) 
-26.4742

>  <r_i_glide_ecoul>  (30) 
-5.05698

>  <r_i_glide_erotb>  (30) 
0.363852

>  <r_i_glide_esite>  (30) 
-0.0163772

>  <r_i_glide_emodel>  (30) 
-36.0681

>  <r_i_glide_energy>  (30) 
-31.5312

>  <r_i_glide_einternal>  (30) 
6.12426

>  <r_i_glide_intrahb_reward>  (30) 
-0

>  <i_i_glide_confnum>  (30) 
2

>  <i_i_glide_posenum>  (30) 
3

>  <r_i_glide_eff_state_penalty>  (30) 
0

>  <ligand_id>  (30) 
12

>  <original_smiles>  (30) 
O=C1[n+]2ccnc3c2C(C=C3)C1(c1ccccc1)N1CCOCC1

>  <smiles>  (30) 
[H]C1=C([H])C2([H])c3c1nc([H])c([H])[n+]3C(=O)C2(c1c([H])c([H])c([H])c([H])c1[H])N1C([H])([H])C([H])([H])OC([H])([H])C1([H])[H]

$$$$
12:0:2
     RDKit          3D

 42 46  0  0  1  0  0  0  0  0999 V2000
    5.5050   -0.6974    0.9375 O   0  0  0  0  0  0  0  0  0  0  0  0
    4.8712   -1.7579    1.0031 C   0  0  0  0  0  0  0  0  0  0  0  0
    4.1769   -2.1871    2.0896 N   0  0  0  0  0  0  0  0  0  0  0  0
    4.2314   -1.7936    3.3875 C   0  0  0  0  0  0  0  0  0  0  0  0
    3.6868   -2.6830    4.3523 C   0  0  0  0  0  0  0  0  0  0  0  0
    3.2296   -3.9314    4.0266 N   0  0  0  0  0  0  0  0  0  0  0  0
    3.1330   -4.2155    2.7032 C   0  0  0  0  0  0  0  0  0  0  0  0
    3.5164   -3.2776    1.7821 C   0  0  0  0  0  0  0  0  0  0  0  0
    3.5915   -3.7112    0.3842 C   0  0  2  0  0  0  0  0  0  0  0  0
    3.4487   -5.2128    0.6711 C   0  0  0  0  0  0  0  0  0  0  0  0
    3.0948   -5.4704    1.9561 C   0  0  0  0  0  0  0  0  0  0  0  0
    4.8533   -2.8898   -0.1072 C   0  0  1  0  0  0  0  0  0  0  0  0
    4.4945   -2.3940   -1.5258 C   0  0  0  0  0  0  0  0  0  0  0  0
    4.4178   -3.3361   -2.5794 C   0  0  0  0  0  0  0  0  0  0  0  0
    4.0428   -2.9471   -3.8775 C   0  0  0  0  0  0  0  0  0  0  0  0
    3.7453   -1.5991   -4.1460 C   0  0  0  0  0  0  0  0  0  0  0  0
    3.8180   -0.6496   -3.1171 C   0  0  0  0  0  0  0  0  0  0  0  0
    4.1904   -1.0453   -1.8236 C   0  0  0  0  0  0  0  0  0  0  0  0
    6.1700   -3.6112   -0.1536 N   0  0  0  0  0  0  0  0  0  0  0  0
    7.2843   -2.7685   -0.6492 C   0  0  0  0  0  0  0  0  0  0  0  0
    8.6197   -3.5012   -0.7173 C   0  0  0  0  0  0  0  0  0  0  0  0
    8.9552   -4.0669    0.5425 O   0  0  0  0  0  0  0  0  0  0  0  0
    7.9570   -4.9723    0.9892 C   0  0  0  0  0  0  0  0  0  0  0  0
    6.6079   -4.2448    1.1072 C   0  0  0  0  0  0  0  0  0  0  0  0
    4.7678   -0.8746    3.6086 H   0  0  0  0  0  0  0  0  0  0  0  0
    3.6577   -2.4194    5.4060 H   0  0  0  0  0  0  0  0  0  0  0  0
    2.6724   -3.3497   -0.0804 H   0  0  0  0  0  0  0  0  0  0  0  0
    3.4680   -5.9441   -0.1236 H   0  0  0  0  0  0  0  0  0  0  0  0
    2.7926   -6.4204    2.3693 H   0  0  0  0  0  0  0  0  0  0  0  0
    4.6329   -4.3752   -2.3904 H   0  0  0  0  0  0  0  0  0  0  0  0
    3.9756   -3.6838   -4.6604 H   0  0  0  0  0  0  0  0  0  0  0  0
    3.4374   -1.2761   -5.1229 H   0  0  0  0  0  0  0  0  0  0  0  0
    3.5826    0.3815   -3.3062 H   0  0  0  0  0  0  0  0  0  0  0  0
    4.2124   -0.2783   -1.0758 H   0  0  0  0  0  0  0  0  0  0  0  0
    7.0784   -2.3688   -1.6464 H   0  0  0  0  0  0  0  0  0  0  0  0
    7.4605   -1.9166    0.0118 H   0  0  0  0  0  0  0  0  0  0  0  0
    8.6425   -4.2546   -1.5046 H   0  0  0  0  0  0  0  0  0  0  0  0
    9.3966   -2.7755   -0.9484 H   0  0  0  0  0  0  0  0  0  0  0  0
    7.8885   -5.8260    0.3106 H   0  0  0  0  0  0  0  0  0  0  0  0
    8.2339   -5.3520    1.9737 H   0  0  0  0  0  0  0  0  0  0  0  0
    6.7186   -3.5053    1.9028 H   0  0  0  0  0  0  0  0  0  0  0  0
    5.9010   -5.0013    1.4383 H   0  0  0  0  0  0  0  0  0  0  0  0
  1  2  2  0
  2 12  1  0
  2  3  1  0
  3  8  2  0
  3  4  1  0
  4  5  2  0
  4 25  1  0
  5  6  1  0
  5 26  1  0
  6  7  2  0
  7 11  1  0
  7  8  1  0
  8  9  1  0
  9 10  1  0
  9 12  1  0
  9 27  1  6
 10 11  2  0
 10 28  1  0
 11 29  1  0
 12 13  1  0
 12 19  1  6
 13 18  1  0
 13 14  2  0
 14 15  1  0
 14 30  1  0
 15 16  2  0
 15 31  1  0
 16 17  1  0
 16 32  1  0
 17 18  2  0
 17 33  1  0
 18 34  1  0
 19 24  1  0
 19 20  1  0
 20 21  1  0
 20 35  1  0
 20 36  1  0
 21 22  1  0
 21 37  1  0
 21 38  1  0
 22 23  1  0
 23 24  1  0
 23 39  1  0
 23 40  1  0
 24 41  1  0
 24 42  1  0
M  CHG  1   3   1
M  END
>  <i_m_ct_stereo_status>  (31) 
1

>  <s_m_source_file>  (31) 
/var/tmp/pbs.5076255.sched01/tmpn440o9cr/0yczfkg0t.sdf

>  <i_m_source_file_index>  (31) 
15

>  <i_lp_mmshare_version>  (31) 
48012

>  <i_f3d_flags>  (31) 
0

>  <s_epik_input>  (31) 
W2NIXTFbY0hdW2NIXVtjSF1bY0hdYzFbQ0BdKEMyPU8pKE4zW0NIMl1bQ0gyXU9bQ0gyXVtDSDJdMylbQ0BIXTRbQ0hdPVtDSF1jKGM0W24rXTI1KW5bY0hdW2NIXTU=

>  <s_epik_cmdline>  (31) 
J2VwaWtfcHl0aG9uJywgJy1waHQnLCAnMi4wJywgJy1waCcsICc3LjAnLCAnLXRuJywgJzgnLCAnLW1hJywgJzIwMCcsICctaW1hZScsICc8aW5maWxlLm1hZT4nLCAnLW9tYWUnLCAnPG91dGZpbGUubWFlPic=

>  <r_lp_tautomer_probability>  (31) 
1

>  <r_epik_Ionization_Penalty>  (31) 
3.39359e-06

>  <r_epik_Ionization_Penalty_Charging>  (31) 
0

>  <r_epik_Ionization_Penalty_Neutral>  (31) 
3.39359e-06

>  <r_epik_State_Penalty>  (31) 
-0

>  <r_epik_Charging_Adjusted_Penalty>  (31) 
0

>  <i_epik_Tot_Q>  (31) 
1

>  <i_epik_Tot_abs_Q>  (31) 
1

>  <s_lp_Force_Field>  (31) 
OPLS3e

>  <r_lp_Energy>  (31) 
71.934

>  <b_lp_Chiralities_Consistent>  (31) 
1

>  <s_lp_Variant>  (31) 
12:0-1

>  <s_i_glide_gridfile>  (31) 
pfpi4k_grid

>  <i_i_glide_lignum>  (31) 
15

>  <i_i_glide_rotatable_bonds>  (31) 
2

>  <r_i_docking_score>  (31) 
-3.40548

>  <r_i_glide_ligand_efficiency>  (31) 
-0.141895

>  <r_i_glide_ligand_efficiency_sa>  (31) 
-0.409296

>  <r_i_glide_ligand_efficiency_ln>  (31) 
-0.815089

>  <r_i_glide_gscore>  (31) 
-3.40548

>  <r_i_glide_lipo>  (31) 
-0.480184

>  <r_i_glide_hbond>  (31) 
-0.0335804

>  <r_i_glide_metal>  (31) 
-0

>  <r_i_glide_rewards>  (31) 
-1.28192

>  <r_i_glide_evdw>  (31) 
-30.975

>  <r_i_glide_ecoul>  (31) 
-2.83268

>  <r_i_glide_erotb>  (31) 
0.363852

>  <r_i_glide_esite>  (31) 
0

>  <r_i_glide_emodel>  (31) 
-40.9437

>  <r_i_glide_energy>  (31) 
-33.8077

>  <r_i_glide_einternal>  (31) 
0.448918

>  <r_i_glide_intrahb_reward>  (31) 
-0

>  <i_i_glide_confnum>  (31) 
2

>  <i_i_glide_posenum>  (31) 
33

>  <r_i_glide_eff_state_penalty>  (31) 
0

>  <ligand_id>  (31) 
12

>  <original_smiles>  (31) 
O=C1[n+]2ccnc3c2C(C=C3)C1(c1ccccc1)N1CCOCC1

>  <smiles>  (31) 
[H]C1=C([H])C2([H])c3c1nc([H])c([H])[n+]3C(=O)C2(c1c([H])c([H])c([H])c([H])c1[H])N1C([H])([H])C([H])([H])OC([H])([H])C1([H])[H]

$$$$
13:0:0
     RDKit          3D

 73 76  0  0  1  0  0  0  0  0999 V2000
    7.4924   -2.8030   -1.5415 C   0  0  0  0  0  0  0  0  0  0  0  0
    7.6183   -2.0178   -0.3736 O   0  0  0  0  0  0  0  0  0  0  0  0
    6.9301   -2.4470    0.7913 C   0  0  2  0  0  0  0  0  0  0  0  0
    7.3486   -3.8430    1.2674 C   0  0  0  0  0  0  0  0  0  0  0  0
    6.1074   -4.3995    1.9860 C   0  0  1  0  0  0  0  0  0  0  0  0
    4.9394   -3.7414    1.2858 C   0  0  0  0  0  0  0  0  0  0  0  0
    3.7316   -4.3288    1.1499 C   0  0  0  0  0  0  0  0  0  0  0  0
    2.6368   -3.7274    0.2540 C   0  0  0  0  0  0  0  0  0  0  0  0
    3.3667   -5.6463    1.8760 C   0  0  2  0  0  0  0  0  0  0  0  0
    2.9134   -6.5567    0.8933 O   0  0  0  0  0  0  0  0  0  0  0  0
    2.2243   -5.3575    2.8971 C   0  0  0  0  0  0  0  0  0  0  0  0
    1.9906   -4.1897    3.2280 O   0  0  0  0  0  0  0  0  0  0  0  0
    1.4032   -6.5015    3.5810 C   0  0  1  0  0  0  0  0  0  0  0  0
    1.3685   -6.1707    5.1083 C   0  0  0  0  0  0  0  0  0  0  0  0
    0.4654   -5.1245    5.4629 O   0  0  0  0  0  0  0  0  0  0  0  0
   -0.1035   -5.0410    6.6843 C   0  0  0  0  0  0  0  0  0  0  0  0
    0.2938   -6.1415    7.6720 C   0  0  0  0  0  0  0  0  0  0  0  0
   -0.8985   -4.1614    7.0093 O   0  0  0  0  0  0  0  0  0  0  0  0
   -0.0588   -6.6779    3.0847 C   0  0  1  0  0  0  0  0  0  0  0  0
   -0.1753   -6.6385    1.6736 O   0  0  0  0  0  0  0  0  0  0  0  0
   -0.5034   -8.0616    3.6265 C   0  0  1  0  0  0  0  0  0  0  0  0
   -1.5335   -8.8292    2.7758 C   0  0  0  0  0  0  0  0  0  0  0  0
    0.7886   -8.8573    3.8806 C   0  0  0  0  0  0  0  0  0  0  0  0
    1.9392   -7.9485    3.3936 C   0  0  2  0  0  0  0  0  0  0  0  0
    3.3374   -8.2068    3.9872 C   0  0  1  0  0  0  0  0  0  0  0  0
    3.5059   -9.5841    4.2316 O   0  0  0  0  0  0  0  0  0  0  0  0
    4.4658   -7.7911    3.0293 C   0  0  0  0  0  0  0  0  0  0  0  0
    4.5977   -6.2752    2.6573 C   0  0  1  0  0  0  0  0  0  0  0  0
    5.9857   -5.9444    1.9894 C   0  0  0  0  0  0  0  0  0  0  0  0
    6.0511   -6.5572    0.5640 C   0  0  0  0  0  0  0  0  0  0  0  0
    7.1831   -6.5111    2.7938 C   0  0  0  0  0  0  0  0  0  0  0  0
    5.4016   -2.4387    0.6528 C   0  0  1  0  0  0  0  0  0  0  0  0
    4.7381   -1.1975    1.2979 C   0  0  0  0  0  0  0  0  0  0  0  0
    8.0828   -2.3117   -2.3102 H   0  0  0  0  0  0  0  0  0  0  0  0
    6.4630   -2.8583   -1.8802 H   0  0  0  0  0  0  0  0  0  0  0  0
    7.8963   -3.8007   -1.4190 H   0  0  0  0  0  0  0  0  0  0  0  0
    7.1711   -1.7292    1.5629 H   0  0  0  0  0  0  0  0  0  0  0  0
    7.6169   -4.4651    0.4161 H   0  0  0  0  0  0  0  0  0  0  0  0
    8.2431   -3.8536    1.8965 H   0  0  0  0  0  0  0  0  0  0  0  0
    6.0886   -4.0285    3.0057 H   0  0  0  0  0  0  0  0  0  0  0  0
    2.2445   -4.4736   -0.4411 H   0  0  0  0  0  0  0  0  0  0  0  0
    2.9887   -2.9016   -0.3607 H   0  0  0  0  0  0  0  0  0  0  0  0
    1.8318   -3.3344    0.8458 H   0  0  0  0  0  0  0  0  0  0  0  0
    3.6248   -6.6967    0.2712 H   0  0  0  0  0  0  0  0  0  0  0  0
    1.0824   -7.0791    5.6249 H   0  0  0  0  0  0  0  0  0  0  0  0
    2.3633   -5.8995    5.4634 H   0  0  0  0  0  0  0  0  0  0  0  0
   -0.1877   -7.0806    7.3939 H   0  0  0  0  0  0  0  0  0  0  0  0
   -0.0153   -5.8976    8.6949 H   0  0  0  0  0  0  0  0  0  0  0  0
    1.3740   -6.2934    7.6864 H   0  0  0  0  0  0  0  0  0  0  0  0
   -0.6958   -5.9049    3.5076 H   0  0  0  0  0  0  0  0  0  0  0  0
    0.2636   -7.4141    1.3218 H   0  0  0  0  0  0  0  0  0  0  0  0
   -0.9636   -7.8970    4.5988 H   0  0  0  0  0  0  0  0  0  0  0  0
   -1.1343   -9.1120    1.7999 H   0  0  0  0  0  0  0  0  0  0  0  0
   -2.4373   -8.2412    2.6131 H   0  0  0  0  0  0  0  0  0  0  0  0
   -1.8290   -9.7498    3.2790 H   0  0  0  0  0  0  0  0  0  0  0  0
    0.8785   -9.0987    4.9418 H   0  0  0  0  0  0  0  0  0  0  0  0
    0.7991   -9.8115    3.3538 H   0  0  0  0  0  0  0  0  0  0  0  0
    1.9864   -8.1956    2.3379 H   0  0  0  0  0  0  0  0  0  0  0  0
    3.4701   -7.7181    4.9530 H   0  0  0  0  0  0  0  0  0  0  0  0
    3.3928  -10.0613    3.4113 H   0  0  0  0  0  0  0  0  0  0  0  0
    5.3715   -8.1081    3.5407 H   0  0  0  0  0  0  0  0  0  0  0  0
    4.4117   -8.4034    2.1246 H   0  0  0  0  0  0  0  0  0  0  0  0
    4.6475   -5.7715    3.6234 H   0  0  0  0  0  0  0  0  0  0  0  0
    5.8155   -7.6208    0.5936 H   0  0  0  0  0  0  0  0  0  0  0  0
    7.0417   -6.4714    0.1124 H   0  0  0  0  0  0  0  0  0  0  0  0
    5.3635   -6.0920   -0.1390 H   0  0  0  0  0  0  0  0  0  0  0  0
    7.2804   -7.5911    2.6840 H   0  0  0  0  0  0  0  0  0  0  0  0
    7.1018   -6.2757    3.8532 H   0  0  0  0  0  0  0  0  0  0  0  0
    8.1309   -6.1074    2.4414 H   0  0  0  0  0  0  0  0  0  0  0  0
    5.1218   -2.4516   -0.4041 H   0  0  0  0  0  0  0  0  0  0  0  0
    3.6594   -1.1960    1.1351 H   0  0  0  0  0  0  0  0  0  0  0  0
    5.1202   -0.2773    0.8556 H   0  0  0  0  0  0  0  0  0  0  0  0
    4.9016   -1.1429    2.3762 H   0  0  0  0  0  0  0  0  0  0  0  0
  1  2  1  0
  1 34  1  0
  1 35  1  0
  1 36  1  0
  2  3  1  0
  3 32  1  0
  3  4  1  0
  3 37  1  1
  4  5  1  0
  4 38  1  0
  4 39  1  0
  5 29  1  0
  5  6  1  0
  5 40  1  1
  6  7  2  0
  6 32  1  0
  7  8  1  0
  7  9  1  0
  8 41  1  0
  8 42  1  0
  8 43  1  0
  9 28  1  0
  9 10  1  6
  9 11  1  0
 10 44  1  0
 11 12  2  0
 11 13  1  0
 13 24  1  0
 13 14  1  1
 13 19  1  0
 14 15  1  0
 14 45  1  0
 14 46  1  0
 15 16  1  0
 16 17  1  0
 16 18  2  0
 17 47  1  0
 17 48  1  0
 17 49  1  0
 19 20  1  0
 19 21  1  0
 19 50  1  1
 20 51  1  0
 21 22  1  0
 21 23  1  0
 21 52  1  1
 22 53  1  0
 22 54  1  0
 22 55  1  0
 23 24  1  0
 23 56  1  0
 23 57  1  0
 24 25  1  0
 24 58  1  6
 25 26  1  0
 25 27  1  0
 25 59  1  1
 26 60  1  0
 27 28  1  0
 27 61  1  0
 27 62  1  0
 28 29  1  0
 28 63  1  1
 29 30  1  0
 29 31  1  0
 30 64  1  0
 30 65  1  0
 30 66  1  0
 31 67  1  0
 31 68  1  0
 31 69  1  0
 32 33  1  0
 32 70  1  6
 33 71  1  0
 33 72  1  0
 33 73  1  0
M  END
>  <i_m_ct_stereo_status>  (32) 
1

>  <s_m_source_file>  (32) 
/var/tmp/pbs.5076255.sched01/tmpn440o9cr/0yczfkg0t.sdf

>  <i_m_source_file_index>  (32) 
16

>  <i_lp_mmshare_version>  (32) 
48012

>  <i_f3d_flags>  (32) 
0

>  <s_epik_input>  (32) 
W0NIM11PW0NASF0oW0NIMl0xKVtDQEhdKFtDSDNdKUMoPUMyW0NIM10pW0NASF0xQyhbQ0gzXSkoW0NIM10pW0NAQEhdKFtDQF0yM1tPSF0pW0NIMl1bQ0BIXShbT0hdKVtDQEBIXTRbQ0BAXShDMz1PKShbQ0BASF0oW09IXSlbQ0BASF0oW0NIM10pW0NIMl00KVtDSDJdT0MoPU8pW0NIM10=

>  <s_epik_cmdline>  (32) 
J2VwaWtfcHl0aG9uJywgJy1waHQnLCAnMi4wJywgJy1waCcsICc3LjAnLCAnLXRuJywgJzgnLCAnLW1hJywgJzIwMCcsICctaW1hZScsICc8aW5maWxlLm1hZT4nLCAnLW9tYWUnLCAnPG91dGZpbGUubWFlPic=

>  <r_lp_tautomer_probability>  (32) 
1

>  <r_epik_Ionization_Penalty>  (32) 
2.57165e-07

>  <r_epik_Ionization_Penalty_Charging>  (32) 
0

>  <r_epik_Ionization_Penalty_Neutral>  (32) 
2.57165e-07

>  <r_epik_State_Penalty>  (32) 
-0

>  <r_epik_Charging_Adjusted_Penalty>  (32) 
0

>  <i_epik_Tot_Q>  (32) 
0

>  <i_epik_Tot_abs_Q>  (32) 
0

>  <s_epik_Chemistry_Notes>  (32) 
This compound has an ester and may undergo hydrolysis at high or low pH.

>  <s_lp_Force_Field>  (32) 
OPLS3e

>  <r_lp_Energy>  (32) 
52.0185

>  <b_lp_Chiralities_Consistent>  (32) 
1

>  <s_lp_Variant>  (32) 
13:0-1

>  <s_i_glide_gridfile>  (32) 
pfpi4k_grid

>  <i_i_glide_lignum>  (32) 
16

>  <i_i_glide_rotatable_bonds>  (32) 
7

>  <r_i_docking_score>  (32) 
-2.66494

>  <r_i_glide_ligand_efficiency>  (32) 
-0.0807558

>  <r_i_glide_ligand_efficiency_sa>  (32) 
-0.259027

>  <r_i_glide_ligand_efficiency_ln>  (32) 
-0.592669

>  <r_i_glide_gscore>  (32) 
-2.66494

>  <r_i_glide_lipo>  (32) 
-0.440359

>  <r_i_glide_hbond>  (32) 
-0.157193

>  <r_i_glide_metal>  (32) 
-0

>  <r_i_glide_rewards>  (32) 
-0.249413

>  <r_i_glide_evdw>  (32) 
-23.1463

>  <r_i_glide_ecoul>  (32) 
-5.60366

>  <r_i_glide_erotb>  (32) 
0.186806

>  <r_i_glide_esite>  (32) 
-0.00691713

>  <r_i_glide_emodel>  (32) 
-26.1506

>  <r_i_glide_energy>  (32) 
-28.75

>  <r_i_glide_einternal>  (32) 
15.4693

>  <r_i_glide_intrahb_reward>  (32) 
-0

>  <i_i_glide_confnum>  (32) 
4

>  <i_i_glide_posenum>  (32) 
3

>  <r_i_glide_eff_state_penalty>  (32) 
0

>  <ligand_id>  (32) 
13

>  <original_smiles>  (32) 
COC1CC2C(=C(C)C3(O)C(=O)C4(COC(C)=O)C(O)C(C)CC4C(O)CC3C2(C)C)C1C

>  <smiles>  (32) 
[H]OC12C(=O)C3(C([H])([H])OC(=O)C([H])([H])[H])C([H])(O[H])C([H])(C([H])([H])[H])C([H])([H])C3([H])C([H])(O[H])C([H])([H])C1([H])C(C([H])([H])[H])(C([H])([H])[H])C1([H])C(=C2C([H])([H])[H])C([H])(C([H])([H])[H])C([H])(OC([H])([H])[H])C1([H])[H]

$$$$
13:0:1
     RDKit          3D

 73 76  0  0  1  0  0  0  0  0999 V2000
    8.6209   -1.7948    0.0659 C   0  0  0  0  0  0  0  0  0  0  0  0
    7.1985   -1.7644    0.0280 O   0  0  0  0  0  0  0  0  0  0  0  0
    6.6018   -2.3195    1.2014 C   0  0  2  0  0  0  0  0  0  0  0  0
    6.9771   -3.8081    1.3621 C   0  0  0  0  0  0  0  0  0  0  0  0
    5.8106   -4.4658    2.0882 C   0  0  1  0  0  0  0  0  0  0  0  0
    4.6174   -3.6858    1.6334 C   0  0  0  0  0  0  0  0  0  0  0  0
    3.3971   -4.2335    1.5188 C   0  0  0  0  0  0  0  0  0  0  0  0
    2.2580   -3.4856    0.8401 C   0  0  0  0  0  0  0  0  0  0  0  0
    3.0512   -5.6536    2.0514 C   0  0  2  0  0  0  0  0  0  0  0  0
    2.4900   -6.3829    0.9806 O   0  0  0  0  0  0  0  0  0  0  0  0
    2.0102   -5.5302    3.2026 C   0  0  0  0  0  0  0  0  0  0  0  0
    1.8216   -4.4247    3.7416 O   0  0  0  0  0  0  0  0  0  0  0  0
    1.2336   -6.7614    3.7591 C   0  0  1  0  0  0  0  0  0  0  0  0
    1.3312   -6.6872    5.3068 C   0  0  0  0  0  0  0  0  0  0  0  0
    0.4965   -5.6969    5.9196 O   0  0  0  0  0  0  0  0  0  0  0  0
    0.1984   -5.7257    7.2452 C   0  0  0  0  0  0  0  0  0  0  0  0
    0.7270   -6.9147    8.0600 C   0  0  0  0  0  0  0  0  0  0  0  0
   -0.4964   -4.8628    7.7732 O   0  0  0  0  0  0  0  0  0  0  0  0
   -0.2696   -6.8593    3.3734 C   0  0  1  0  0  0  0  0  0  0  0  0
   -0.4847   -6.6559    2.0004 O   0  0  0  0  0  0  0  0  0  0  0  0
   -0.6851   -8.3069    3.7356 C   0  0  1  0  0  0  0  0  0  0  0  0
   -1.7902   -8.9083    2.8626 C   0  0  0  0  0  0  0  0  0  0  0  0
    0.6056   -9.1445    3.7504 C   0  0  0  0  0  0  0  0  0  0  0  0
    1.7217   -8.1695    3.3190 C   0  0  2  0  0  0  0  0  0  0  0  0
    3.1597   -8.5175    3.7367 C   0  0  1  0  0  0  0  0  0  0  0  0
    3.3265   -9.9112    3.7109 O   0  0  0  0  0  0  0  0  0  0  0  0
    4.2015   -7.9648    2.7420 C   0  0  0  0  0  0  0  0  0  0  0  0
    4.3252   -6.4158    2.6091 C   0  0  1  0  0  0  0  0  0  0  0  0
    5.6421   -5.9879    1.8878 C   0  0  0  0  0  0  0  0  0  0  0  0
    5.5655   -6.3541    0.3979 C   0  0  0  0  0  0  0  0  0  0  0  0
    6.9085   -6.6664    2.4658 C   0  0  0  0  0  0  0  0  0  0  0  0
    5.0530   -2.3076    1.1478 C   0  0  1  0  0  0  0  0  0  0  0  0
    4.4460   -1.1857    2.0221 C   0  0  0  0  0  0  0  0  0  0  0  0
    9.0131   -1.4504   -0.8860 H   0  0  0  0  0  0  0  0  0  0  0  0
    9.0422   -2.8030    0.1616 H   0  0  0  0  0  0  0  0  0  0  0  0
    9.0334   -1.1720    0.8624 H   0  0  0  0  0  0  0  0  0  0  0  0
    6.8902   -1.7272    2.0714 H   0  0  0  0  0  0  0  0  0  0  0  0
    7.1000   -4.2130    0.3636 H   0  0  0  0  0  0  0  0  0  0  0  0
    7.9315   -3.9501    1.8611 H   0  0  0  0  0  0  0  0  0  0  0  0
    5.8890   -4.2364    3.1473 H   0  0  0  0  0  0  0  0  0  0  0  0
    1.8118   -4.1232    0.0793 H   0  0  0  0  0  0  0  0  0  0  0  0
    2.5695   -2.5783    0.3330 H   0  0  0  0  0  0  0  0  0  0  0  0
    1.5422   -3.1857    1.6072 H   0  0  0  0  0  0  0  0  0  0  0  0
    3.1557   -6.4618    0.3018 H   0  0  0  0  0  0  0  0  0  0  0  0
    1.0556   -7.6691    5.6881 H   0  0  0  0  0  0  0  0  0  0  0  0
    2.3578   -6.4973    5.6223 H   0  0  0  0  0  0  0  0  0  0  0  0
    0.1502   -7.8047    7.7999 H   0  0  0  0  0  0  0  0  0  0  0  0
    0.6293   -6.7498    9.1335 H   0  0  0  0  0  0  0  0  0  0  0  0
    1.7795   -7.1067    7.8601 H   0  0  0  0  0  0  0  0  0  0  0  0
   -0.8875   -6.1523    3.9343 H   0  0  0  0  0  0  0  0  0  0  0  0
   -0.0772   -7.3870    1.5329 H   0  0  0  0  0  0  0  0  0  0  0  0
   -1.0533   -8.3094    4.7651 H   0  0  0  0  0  0  0  0  0  0  0  0
   -1.4869   -9.0597    1.8302 H   0  0  0  0  0  0  0  0  0  0  0  0
   -2.6697   -8.2772    2.8867 H   0  0  0  0  0  0  0  0  0  0  0  0
   -2.0780   -9.8689    3.2627 H   0  0  0  0  0  0  0  0  0  0  0  0
    0.7756   -9.5515    4.7513 H   0  0  0  0  0  0  0  0  0  0  0  0
    0.5570  -10.0033    3.0788 H   0  0  0  0  0  0  0  0  0  0  0  0
    1.6817   -8.2475    2.2361 H   0  0  0  0  0  0  0  0  0  0  0  0
    3.3913   -8.1949    4.7500 H   0  0  0  0  0  0  0  0  0  0  0  0
    2.7324  -10.3189    4.3359 H   0  0  0  0  0  0  0  0  0  0  0  0
    5.1373   -8.3649    3.1172 H   0  0  0  0  0  0  0  0  0  0  0  0
    4.0520   -8.4368    1.7719 H   0  0  0  0  0  0  0  0  0  0  0  0
    4.4751   -6.0740    3.6334 H   0  0  0  0  0  0  0  0  0  0  0  0
    5.3207   -7.4046    0.2696 H   0  0  0  0  0  0  0  0  0  0  0  0
    6.5349   -6.1976   -0.0737 H   0  0  0  0  0  0  0  0  0  0  0  0
    4.8416   -5.7786   -0.1810 H   0  0  0  0  0  0  0  0  0  0  0  0
    6.9826   -7.7144    2.1834 H   0  0  0  0  0  0  0  0  0  0  0  0
    6.9326   -6.6047    3.5523 H   0  0  0  0  0  0  0  0  0  0  0  0
    7.8312   -6.2120    2.0971 H   0  0  0  0  0  0  0  0  0  0  0  0
    4.7337   -2.1788    0.1087 H   0  0  0  0  0  0  0  0  0  0  0  0
    3.3579   -1.1654    1.9637 H   0  0  0  0  0  0  0  0  0  0  0  0
    4.8036   -0.1978    1.7094 H   0  0  0  0  0  0  0  0  0  0  0  0
    4.7072   -1.3150    3.0789 H   0  0  0  0  0  0  0  0  0  0  0  0
  1  2  1  0
  1 34  1  0
  1 35  1  0
  1 36  1  0
  2  3  1  0
  3 32  1  0
  3  4  1  0
  3 37  1  1
  4  5  1  0
  4 38  1  0
  4 39  1  0
  5 29  1  0
  5  6  1  0
  5 40  1  1
  6  7  2  0
  6 32  1  0
  7  8  1  0
  7  9  1  0
  8 41  1  0
  8 42  1  0
  8 43  1  0
  9 28  1  0
  9 10  1  6
  9 11  1  0
 10 44  1  0
 11 12  2  0
 11 13  1  0
 13 24  1  0
 13 14  1  1
 13 19  1  0
 14 15  1  0
 14 45  1  0
 14 46  1  0
 15 16  1  0
 16 17  1  0
 16 18  2  0
 17 47  1  0
 17 48  1  0
 17 49  1  0
 19 20  1  0
 19 21  1  0
 19 50  1  1
 20 51  1  0
 21 22  1  0
 21 23  1  0
 21 52  1  1
 22 53  1  0
 22 54  1  0
 22 55  1  0
 23 24  1  0
 23 56  1  0
 23 57  1  0
 24 25  1  0
 24 58  1  6
 25 26  1  0
 25 27  1  0
 25 59  1  1
 26 60  1  0
 27 28  1  0
 27 61  1  0
 27 62  1  0
 28 29  1  0
 28 63  1  1
 29 30  1  0
 29 31  1  0
 30 64  1  0
 30 65  1  0
 30 66  1  0
 31 67  1  0
 31 68  1  0
 31 69  1  0
 32 33  1  0
 32 70  1  6
 33 71  1  0
 33 72  1  0
 33 73  1  0
M  END
>  <i_m_ct_stereo_status>  (33) 
1

>  <s_m_source_file>  (33) 
/var/tmp/pbs.5076255.sched01/tmpn440o9cr/0yczfkg0t.sdf

>  <i_m_source_file_index>  (33) 
16

>  <i_lp_mmshare_version>  (33) 
48012

>  <i_f3d_flags>  (33) 
0

>  <s_epik_input>  (33) 
W0NIM11PW0NASF0oW0NIMl0xKVtDQEhdKFtDSDNdKUMoPUMyW0NIM10pW0NASF0xQyhbQ0gzXSkoW0NIM10pW0NAQEhdKFtDQF0yM1tPSF0pW0NIMl1bQ0BIXShbT0hdKVtDQEBIXTRbQ0BAXShDMz1PKShbQ0BASF0oW09IXSlbQ0BASF0oW0NIM10pW0NIMl00KVtDSDJdT0MoPU8pW0NIM10=

>  <s_epik_cmdline>  (33) 
J2VwaWtfcHl0aG9uJywgJy1waHQnLCAnMi4wJywgJy1waCcsICc3LjAnLCAnLXRuJywgJzgnLCAnLW1hJywgJzIwMCcsICctaW1hZScsICc8aW5maWxlLm1hZT4nLCAnLW9tYWUnLCAnPG91dGZpbGUubWFlPic=

>  <r_lp_tautomer_probability>  (33) 
1

>  <r_epik_Ionization_Penalty>  (33) 
2.57165e-07

>  <r_epik_Ionization_Penalty_Charging>  (33) 
0

>  <r_epik_Ionization_Penalty_Neutral>  (33) 
2.57165e-07

>  <r_epik_State_Penalty>  (33) 
-0

>  <r_epik_Charging_Adjusted_Penalty>  (33) 
0

>  <i_epik_Tot_Q>  (33) 
0

>  <i_epik_Tot_abs_Q>  (33) 
0

>  <s_epik_Chemistry_Notes>  (33) 
This compound has an ester and may undergo hydrolysis at high or low pH.

>  <s_lp_Force_Field>  (33) 
OPLS3e

>  <r_lp_Energy>  (33) 
52.0185

>  <b_lp_Chiralities_Consistent>  (33) 
1

>  <s_lp_Variant>  (33) 
13:0-1

>  <s_i_glide_gridfile>  (33) 
pfpi4k_grid

>  <i_i_glide_lignum>  (33) 
16

>  <i_i_glide_rotatable_bonds>  (33) 
7

>  <r_i_docking_score>  (33) 
-2.63822

>  <r_i_glide_ligand_efficiency>  (33) 
-0.0799461

>  <r_i_glide_ligand_efficiency_sa>  (33) 
-0.25643

>  <r_i_glide_ligand_efficiency_ln>  (33) 
-0.586727

>  <r_i_glide_gscore>  (33) 
-2.63822

>  <r_i_glide_lipo>  (33) 
-0.437907

>  <r_i_glide_hbond>  (33) 
-0.0948749

>  <r_i_glide_metal>  (33) 
-0

>  <r_i_glide_rewards>  (33) 
-0.241421

>  <r_i_glide_evdw>  (33) 
-22.0655

>  <r_i_glide_ecoul>  (33) 
-6.25856

>  <r_i_glide_erotb>  (33) 
0.186806

>  <r_i_glide_esite>  (33) 
-0.00876168

>  <r_i_glide_emodel>  (33) 
-29.2811

>  <r_i_glide_energy>  (33) 
-28.3241

>  <r_i_glide_einternal>  (33) 
8.03592

>  <r_i_glide_intrahb_reward>  (33) 
-0

>  <i_i_glide_confnum>  (33) 
5

>  <i_i_glide_posenum>  (33) 
5

>  <r_i_glide_eff_state_penalty>  (33) 
0

>  <ligand_id>  (33) 
13

>  <original_smiles>  (33) 
COC1CC2C(=C(C)C3(O)C(=O)C4(COC(C)=O)C(O)C(C)CC4C(O)CC3C2(C)C)C1C

>  <smiles>  (33) 
[H]OC12C(=O)C3(C([H])([H])OC(=O)C([H])([H])[H])C([H])(O[H])C([H])(C([H])([H])[H])C([H])([H])C3([H])C([H])(O[H])C([H])([H])C1([H])C(C([H])([H])[H])(C([H])([H])[H])C1([H])C(=C2C([H])([H])[H])C([H])(C([H])([H])[H])C([H])(OC([H])([H])[H])C1([H])[H]

$$$$
13:0:2
     RDKit          3D

 73 76  0  0  1  0  0  0  0  0999 V2000
    8.7317   -3.7369   -0.9444 C   0  0  0  0  0  0  0  0  0  0  0  0
    8.7119   -4.9441   -0.1986 O   0  0  0  0  0  0  0  0  0  0  0  0
    7.9013   -4.9248    0.9762 C   0  0  2  0  0  0  0  0  0  0  0  0
    7.8994   -6.3250    1.5962 C   0  0  0  0  0  0  0  0  0  0  0  0
    6.5507   -6.4379    2.3438 C   0  0  1  0  0  0  0  0  0  0  0  0
    5.6003   -5.5695    1.5514 C   0  0  0  0  0  0  0  0  0  0  0  0
    4.2715   -5.7937    1.4810 C   0  0  0  0  0  0  0  0  0  0  0  0
    3.3799   -5.0410    0.4854 C   0  0  0  0  0  0  0  0  0  0  0  0
    3.5602   -6.8335    2.3802 C   0  0  2  0  0  0  0  0  0  0  0  0
    2.8653   -7.7149    1.5189 O   0  0  0  0  0  0  0  0  0  0  0  0
    2.5483   -6.0969    3.3214 C   0  0  0  0  0  0  0  0  0  0  0  0
    2.6689   -4.8730    3.4911 O   0  0  0  0  0  0  0  0  0  0  0  0
    1.4354   -6.8418    4.1221 C   0  0  1  0  0  0  0  0  0  0  0  0
    1.5237   -6.3100    5.5895 C   0  0  0  0  0  0  0  0  0  0  0  0
    0.9681   -5.0207    5.7906 O   0  0  0  0  0  0  0  0  0  0  0  0
    1.2726   -4.2555    6.8568 C   0  0  0  0  0  0  0  0  0  0  0  0
    2.3083   -4.8138    7.8246 C   0  0  0  0  0  0  0  0  0  0  0  0
    0.7425   -3.1684    7.0704 O   0  0  0  0  0  0  0  0  0  0  0  0
   -0.0172   -6.6505    3.6043 C   0  0  1  0  0  0  0  0  0  0  0  0
   -0.1412   -6.7655    2.1991 O   0  0  0  0  0  0  0  0  0  0  0  0
   -0.8221   -7.7639    4.3302 C   0  0  1  0  0  0  0  0  0  0  0  0
   -2.0373   -8.3244    3.5736 C   0  0  0  0  0  0  0  0  0  0  0  0
    0.1880   -8.8528    4.7420 C   0  0  0  0  0  0  0  0  0  0  0  0
    1.5391   -8.3907    4.1622 C   0  0  2  0  0  0  0  0  0  0  0  0
    2.8192   -8.9431    4.8149 C   0  0  1  0  0  0  0  0  0  0  0  0
    2.5977  -10.2548    5.2738 O   0  0  0  0  0  0  0  0  0  0  0  0
    4.0079   -9.0144    3.8440 C   0  0  0  0  0  0  0  0  0  0  0  0
    4.5685   -7.6764    3.2613 C   0  0  1  0  0  0  0  0  0  0  0  0
    5.9795   -7.8660    2.5815 C   0  0  0  0  0  0  0  0  0  0  0  0
    5.8511   -8.6861    1.2710 C   0  0  0  0  0  0  0  0  0  0  0  0
    6.9812   -8.6141    3.4974 C   0  0  0  0  0  0  0  0  0  0  0  0
    6.4172   -4.5604    0.7516 C   0  0  1  0  0  0  0  0  0  0  0  0
    6.1176   -3.1056    1.1785 C   0  0  0  0  0  0  0  0  0  0  0  0
    9.4071   -3.8581   -1.7904 H   0  0  0  0  0  0  0  0  0  0  0  0
    9.0736   -2.8961   -0.3425 H   0  0  0  0  0  0  0  0  0  0  0  0
    7.7624   -3.4957   -1.3777 H   0  0  0  0  0  0  0  0  0  0  0  0
    8.3492   -4.2316    1.6878 H   0  0  0  0  0  0  0  0  0  0  0  0
    7.9718   -7.0629    0.7994 H   0  0  0  0  0  0  0  0  0  0  0  0
    8.7575   -6.4854    2.2545 H   0  0  0  0  0  0  0  0  0  0  0  0
    6.6672   -5.9283    3.2949 H   0  0  0  0  0  0  0  0  0  0  0  0
    2.7894   -5.7416   -0.1076 H   0  0  0  0  0  0  0  0  0  0  0  0
    3.9513   -4.4547   -0.2296 H   0  0  0  0  0  0  0  0  0  0  0  0
    2.6923   -4.3606    0.9872 H   0  0  0  0  0  0  0  0  0  0  0  0
    2.6163   -8.4890    2.0202 H   0  0  0  0  0  0  0  0  0  0  0  0
    1.0406   -6.9848    6.2901 H   0  0  0  0  0  0  0  0  0  0  0  0
    2.5840   -6.2793    5.8557 H   0  0  0  0  0  0  0  0  0  0  0  0
    1.8760   -5.6118    8.4185 H   0  0  0  0  0  0  0  0  0  0  0  0
    2.6605   -4.0476    8.5177 H   0  0  0  0  0  0  0  0  0  0  0  0
    3.1715   -5.2170    7.2898 H   0  0  0  0  0  0  0  0  0  0  0  0
   -0.4196   -5.6717    3.8709 H   0  0  0  0  0  0  0  0  0  0  0  0
    0.1891   -7.6310    1.9390 H   0  0  0  0  0  0  0  0  0  0  0  0
   -1.1912   -7.3300    5.2582 H   0  0  0  0  0  0  0  0  0  0  0  0
   -1.7429   -8.8398    2.6575 H   0  0  0  0  0  0  0  0  0  0  0  0
   -2.7368   -7.5307    3.3154 H   0  0  0  0  0  0  0  0  0  0  0  0
   -2.5630   -9.0547    4.1867 H   0  0  0  0  0  0  0  0  0  0  0  0
    0.2246   -8.9486    5.8303 H   0  0  0  0  0  0  0  0  0  0  0  0
   -0.0829   -9.8397    4.3633 H   0  0  0  0  0  0  0  0  0  0  0  0
    1.4875   -8.8003    3.1560 H   0  0  0  0  0  0  0  0  0  0  0  0
    3.1011   -8.3823    5.7130 H   0  0  0  0  0  0  0  0  0  0  0  0
    2.3784  -10.8182    4.5313 H   0  0  0  0  0  0  0  0  0  0  0  0
    4.7883   -9.4954    4.4242 H   0  0  0  0  0  0  0  0  0  0  0  0
    3.7800   -9.7164    3.0367 H   0  0  0  0  0  0  0  0  0  0  0  0
    4.7837   -7.0710    4.1462 H   0  0  0  0  0  0  0  0  0  0  0  0
    5.3287   -9.6307    1.4284 H   0  0  0  0  0  0  0  0  0  0  0  0
    6.8253   -8.9465    0.8598 H   0  0  0  0  0  0  0  0  0  0  0  0
    5.3022   -8.1500    0.4962 H   0  0  0  0  0  0  0  0  0  0  0  0
    6.7619   -9.6812    3.5528 H   0  0  0  0  0  0  0  0  0  0  0  0
    6.9774   -8.2152    4.5105 H   0  0  0  0  0  0  0  0  0  0  0  0
    8.0019   -8.5480    3.1213 H   0  0  0  0  0  0  0  0  0  0  0  0
    6.1525   -4.7179   -0.2949 H   0  0  0  0  0  0  0  0  0  0  0  0
    5.0828   -2.8309    0.9894 H   0  0  0  0  0  0  0  0  0  0  0  0
    6.7456   -2.3968    0.6393 H   0  0  0  0  0  0  0  0  0  0  0  0
    6.2981   -2.9611    2.2429 H   0  0  0  0  0  0  0  0  0  0  0  0
  1  2  1  0
  1 34  1  0
  1 35  1  0
  1 36  1  0
  2  3  1  0
  3 32  1  0
  3  4  1  0
  3 37  1  1
  4  5  1  0
  4 38  1  0
  4 39  1  0
  5 29  1  0
  5  6  1  0
  5 40  1  1
  6  7  2  0
  6 32  1  0
  7  8  1  0
  7  9  1  0
  8 41  1  0
  8 42  1  0
  8 43  1  0
  9 28  1  0
  9 10  1  6
  9 11  1  0
 10 44  1  0
 11 12  2  0
 11 13  1  0
 13 24  1  0
 13 14  1  1
 13 19  1  0
 14 15  1  0
 14 45  1  0
 14 46  1  0
 15 16  1  0
 16 17  1  0
 16 18  2  0
 17 47  1  0
 17 48  1  0
 17 49  1  0
 19 20  1  0
 19 21  1  0
 19 50  1  1
 20 51  1  0
 21 22  1  0
 21 23  1  0
 21 52  1  1
 22 53  1  0
 22 54  1  0
 22 55  1  0
 23 24  1  0
 23 56  1  0
 23 57  1  0
 24 25  1  0
 24 58  1  6
 25 26  1  0
 25 27  1  0
 25 59  1  1
 26 60  1  0
 27 28  1  0
 27 61  1  0
 27 62  1  0
 28 29  1  0
 28 63  1  1
 29 30  1  0
 29 31  1  0
 30 64  1  0
 30 65  1  0
 30 66  1  0
 31 67  1  0
 31 68  1  0
 31 69  1  0
 32 33  1  0
 32 70  1  6
 33 71  1  0
 33 72  1  0
 33 73  1  0
M  END
>  <i_m_ct_stereo_status>  (34) 
1

>  <s_m_source_file>  (34) 
/var/tmp/pbs.5076255.sched01/tmpn440o9cr/0yczfkg0t.sdf

>  <i_m_source_file_index>  (34) 
16

>  <i_lp_mmshare_version>  (34) 
48012

>  <i_f3d_flags>  (34) 
0

>  <s_epik_input>  (34) 
W0NIM11PW0NASF0oW0NIMl0xKVtDQEhdKFtDSDNdKUMoPUMyW0NIM10pW0NASF0xQyhbQ0gzXSkoW0NIM10pW0NAQEhdKFtDQF0yM1tPSF0pW0NIMl1bQ0BIXShbT0hdKVtDQEBIXTRbQ0BAXShDMz1PKShbQ0BASF0oW09IXSlbQ0BASF0oW0NIM10pW0NIMl00KVtDSDJdT0MoPU8pW0NIM10=

>  <s_epik_cmdline>  (34) 
J2VwaWtfcHl0aG9uJywgJy1waHQnLCAnMi4wJywgJy1waCcsICc3LjAnLCAnLXRuJywgJzgnLCAnLW1hJywgJzIwMCcsICctaW1hZScsICc8aW5maWxlLm1hZT4nLCAnLW9tYWUnLCAnPG91dGZpbGUubWFlPic=

>  <r_lp_tautomer_probability>  (34) 
1

>  <r_epik_Ionization_Penalty>  (34) 
2.57165e-07

>  <r_epik_Ionization_Penalty_Charging>  (34) 
0

>  <r_epik_Ionization_Penalty_Neutral>  (34) 
2.57165e-07

>  <r_epik_State_Penalty>  (34) 
-0

>  <r_epik_Charging_Adjusted_Penalty>  (34) 
0

>  <i_epik_Tot_Q>  (34) 
0

>  <i_epik_Tot_abs_Q>  (34) 
0

>  <s_epik_Chemistry_Notes>  (34) 
This compound has an ester and may undergo hydrolysis at high or low pH.

>  <s_lp_Force_Field>  (34) 
OPLS3e

>  <r_lp_Energy>  (34) 
52.0185

>  <b_lp_Chiralities_Consistent>  (34) 
1

>  <s_lp_Variant>  (34) 
13:0-1

>  <s_i_glide_gridfile>  (34) 
pfpi4k_grid

>  <i_i_glide_lignum>  (34) 
16

>  <i_i_glide_rotatable_bonds>  (34) 
7

>  <r_i_docking_score>  (34) 
-2.62807

>  <r_i_glide_ligand_efficiency>  (34) 
-0.0796384

>  <r_i_glide_ligand_efficiency_sa>  (34) 
-0.255443

>  <r_i_glide_ligand_efficiency_ln>  (34) 
-0.584469

>  <r_i_glide_gscore>  (34) 
-2.62807

>  <r_i_glide_lipo>  (34) 
-0.578787

>  <r_i_glide_hbond>  (34) 
-0.0010277

>  <r_i_glide_metal>  (34) 
-0

>  <r_i_glide_rewards>  (34) 
-0.241421

>  <r_i_glide_evdw>  (34) 
-24.945

>  <r_i_glide_ecoul>  (34) 
-4.96916

>  <r_i_glide_erotb>  (34) 
0.186806

>  <r_i_glide_esite>  (34) 
-0.00101332

>  <r_i_glide_emodel>  (34) 
-30.4884

>  <r_i_glide_energy>  (34) 
-29.9142

>  <r_i_glide_einternal>  (34) 
8.99539

>  <r_i_glide_intrahb_reward>  (34) 
-0

>  <i_i_glide_confnum>  (34) 
6

>  <i_i_glide_posenum>  (34) 
10

>  <r_i_glide_eff_state_penalty>  (34) 
0

>  <ligand_id>  (34) 
13

>  <original_smiles>  (34) 
COC1CC2C(=C(C)C3(O)C(=O)C4(COC(C)=O)C(O)C(C)CC4C(O)CC3C2(C)C)C1C

>  <smiles>  (34) 
[H]OC12C(=O)C3(C([H])([H])OC(=O)C([H])([H])[H])C([H])(O[H])C([H])(C([H])([H])[H])C([H])([H])C3([H])C([H])(O[H])C([H])([H])C1([H])C(C([H])([H])[H])(C([H])([H])[H])C1([H])C(=C2C([H])([H])[H])C([H])(C([H])([H])[H])C([H])(OC([H])([H])[H])C1([H])[H]

$$$$
14:0:0
     RDKit          3D

 58 63  0  0  1  0  0  0  0  0999 V2000
    3.1743  -10.1205    4.5634 C   0  0  0  0  0  0  0  0  0  0  0  0
    2.1518   -9.5529    3.9105 C   0  0  0  0  0  0  0  0  0  0  0  0
    1.9178   -9.3378    2.4275 C   0  0  2  0  0  0  0  0  0  0  0  0
    2.9230   -8.5637    1.5213 C   0  0  0  0  0  0  0  0  0  0  0  0
    4.2696   -8.0167    2.0711 C   0  0  1  0  0  0  0  0  0  0  0  0
    5.2603   -8.6285    1.2408 O   0  0  0  0  0  0  0  0  0  0  0  0
    6.5983   -8.4373    1.6641 C   0  0  0  0  0  0  0  0  0  0  0  0
    6.9198   -6.9543    1.5258 C   0  0  0  0  0  0  0  0  0  0  0  0
    5.9450   -6.1376    2.3736 C   0  0  0  0  0  0  0  0  0  0  0  0
    4.4758   -6.4792    2.0998 C   0  0  1  0  0  0  0  0  0  0  0  0
    3.8526   -5.7233    1.0586 O   0  0  0  0  0  0  0  0  0  0  0  0
    3.4033   -5.4137    2.3977 C   0  0  2  0  0  0  0  0  0  0  0  0
    4.0301   -4.3208    3.0684 O   0  0  0  0  0  0  0  0  0  0  0  0
    3.9476   -3.0462    2.5579 C   0  0  0  0  0  0  0  0  0  0  0  0
    4.4718   -2.0073    3.3541 C   0  0  0  0  0  0  0  0  0  0  0  0
    4.4735   -0.6756    2.8980 C   0  0  0  0  0  0  0  0  0  0  0  0
    3.9505   -0.3680    1.6301 C   0  0  0  0  0  0  0  0  0  0  0  0
    3.4136   -1.3929    0.8324 C   0  0  0  0  0  0  0  0  0  0  0  0
    3.3982   -2.7255    1.2916 C   0  0  0  0  0  0  0  0  0  0  0  0
    1.9285   -5.6104    2.7670 C   0  0  1  0  0  0  0  0  0  0  0  0
    1.1248   -5.8638    1.6260 O   0  0  0  0  0  0  0  0  0  0  0  0
    1.7636   -6.6023    3.9490 C   0  0  1  0  0  0  0  0  0  0  0  0
    1.8494   -5.8837    5.3063 C   0  0  0  0  0  0  0  0  0  0  0  0
    0.6005   -7.6334    3.8427 C   0  0  2  0  0  0  0  0  0  0  0  0
   -0.6983   -6.8674    4.1980 C   0  0  0  0  0  0  0  0  0  0  0  0
    0.8715   -9.0049    4.5218 C   0  0  1  0  0  0  0  0  0  0  0  0
   -0.2209   -9.5617    3.6079 C   0  0  0  0  0  0  0  0  0  0  0  0
    0.5737   -8.6519    2.6515 C   0  0  2  0  0  0  0  0  0  0  0  0
    3.1335  -10.2033    5.6398 H   0  0  0  0  0  0  0  0  0  0  0  0
    4.0427  -10.5138    4.0527 H   0  0  0  0  0  0  0  0  0  0  0  0
    1.7414  -10.3136    1.9772 H   0  0  0  0  0  0  0  0  0  0  0  0
    3.1937   -9.3113    0.7776 H   0  0  0  0  0  0  0  0  0  0  0  0
    2.4198   -7.8327    0.8940 H   0  0  0  0  0  0  0  0  0  0  0  0
    4.4457   -8.3712    3.0834 H   0  0  0  0  0  0  0  0  0  0  0  0
    6.7287   -8.7846    2.6910 H   0  0  0  0  0  0  0  0  0  0  0  0
    7.2549   -9.0292    1.0276 H   0  0  0  0  0  0  0  0  0  0  0  0
    7.9445   -6.7652    1.8465 H   0  0  0  0  0  0  0  0  0  0  0  0
    6.8524   -6.6505    0.4811 H   0  0  0  0  0  0  0  0  0  0  0  0
    6.1415   -6.2979    3.4368 H   0  0  0  0  0  0  0  0  0  0  0  0
    6.1257   -5.0811    2.1728 H   0  0  0  0  0  0  0  0  0  0  0  0
    4.8742   -2.2428    4.3280 H   0  0  0  0  0  0  0  0  0  0  0  0
    4.8851    0.1043    3.5214 H   0  0  0  0  0  0  0  0  0  0  0  0
    3.9607    0.6492    1.2699 H   0  0  0  0  0  0  0  0  0  0  0  0
    3.0136   -1.1587   -0.1448 H   0  0  0  0  0  0  0  0  0  0  0  0
    2.9693   -3.4796    0.6498 H   0  0  0  0  0  0  0  0  0  0  0  0
    1.5567   -4.6395    3.0996 H   0  0  0  0  0  0  0  0  0  0  0  0
    1.4250   -6.6771    1.2411 H   0  0  0  0  0  0  0  0  0  0  0  0
    2.6886   -7.1592    3.9706 H   0  0  0  0  0  0  0  0  0  0  0  0
    1.0423   -5.1642    5.4492 H   0  0  0  0  0  0  0  0  0  0  0  0
    2.7888   -5.3351    5.3855 H   0  0  0  0  0  0  0  0  0  0  0  0
    1.8274   -6.5970    6.1294 H   0  0  0  0  0  0  0  0  0  0  0  0
   -1.6082   -7.3029    3.7854 H   0  0  0  0  0  0  0  0  0  0  0  0
   -0.6670   -5.8526    3.8123 H   0  0  0  0  0  0  0  0  0  0  0  0
   -0.8328   -6.7987    5.2783 H   0  0  0  0  0  0  0  0  0  0  0  0
    0.7176   -9.1028    5.5942 H   0  0  0  0  0  0  0  0  0  0  0  0
   -0.1301  -10.6305    3.3998 H   0  0  0  0  0  0  0  0  0  0  0  0
   -1.2544   -9.3145    3.8398 H   0  0  0  0  0  0  0  0  0  0  0  0
    0.0139   -8.3455    1.7680 H   0  0  0  0  0  0  0  0  0  0  0  0
  1  2  2  0
  1 29  1  0
  1 30  1  0
  2 26  1  0
  2  3  1  0
  3 28  1  0
  3  4  1  0
  3 31  1  6
  4  5  1  0
  4 32  1  0
  4 33  1  0
  5 10  1  0
  5  6  1  0
  5 34  1  1
  6  7  1  0
  7  8  1  0
  7 35  1  0
  7 36  1  0
  8  9  1  0
  8 37  1  0
  8 38  1  0
  9 10  1  0
  9 39  1  0
  9 40  1  0
 10 12  1  0
 10 11  1  6
 11 12  1  0
 12 13  1  1
 12 20  1  0
 13 14  1  0
 14 19  1  0
 14 15  2  0
 15 16  1  0
 15 41  1  0
 16 17  2  0
 16 42  1  0
 17 18  1  0
 17 43  1  0
 18 19  2  0
 18 44  1  0
 19 45  1  0
 20 21  1  0
 20 22  1  0
 20 46  1  1
 21 47  1  0
 22 23  1  0
 22 24  1  0
 22 48  1  1
 23 49  1  0
 23 50  1  0
 23 51  1  0
 24 28  1  0
 24 25  1  1
 24 26  1  0
 25 52  1  0
 25 53  1  0
 25 54  1  0
 26 27  1  0
 26 55  1  1
 27 28  1  0
 27 56  1  0
 27 57  1  0
 28 58  1  6
M  END
>  <i_m_ct_stereo_status>  (35) 
1

>  <s_m_source_file>  (35) 
/var/tmp/pbs.5076255.sched01/tmpn440o9cr/0yczfkg0t.sdf

>  <i_m_source_file_index>  (35) 
17

>  <i_lp_mmshare_version>  (35) 
48012

>  <i_f3d_flags>  (35) 
0

>  <s_epik_input>  (35) 
W0NIMl0xW0NIMl1bQ0gyXU9bQ0BASF0oW0NAQF0xMjMpW0NIMl1bQ0BASF00W0NAQEhdNVtDQEBdKFtDSDNdKShbQ0BASF0oW0NIMl01KUM0PVtDSDJdKVtDQEhdKFtDSDNdKVtDQEhdKFtPSF0pW0NAQF0zKE8yKU9jNltjSF1bY0hdW2NIXVtjSF1bY0hdNg==

>  <s_epik_cmdline>  (35) 
J2VwaWtfcHl0aG9uJywgJy1waHQnLCAnMi4wJywgJy1waCcsICc3LjAnLCAnLXRuJywgJzgnLCAnLW1hJywgJzIwMCcsICctaW1hZScsICc8aW5maWxlLm1hZT4nLCAnLW9tYWUnLCAnPG91dGZpbGUubWFlPic=

>  <r_lp_tautomer_probability>  (35) 
1

>  <r_epik_Ionization_Penalty>  (35) 
3.5591e-06

>  <r_epik_Ionization_Penalty_Charging>  (35) 
0

>  <r_epik_Ionization_Penalty_Neutral>  (35) 
3.5591e-06

>  <r_epik_State_Penalty>  (35) 
-0

>  <r_epik_Charging_Adjusted_Penalty>  (35) 
0

>  <i_epik_Tot_Q>  (35) 
0

>  <i_epik_Tot_abs_Q>  (35) 
0

>  <s_lp_Force_Field>  (35) 
OPLS3e

>  <r_lp_Energy>  (35) 
80.8455

>  <b_lp_Chiralities_Consistent>  (35) 
1

>  <s_lp_Variant>  (35) 
14:0-1

>  <s_i_glide_gridfile>  (35) 
pfpi4k_grid

>  <i_i_glide_lignum>  (35) 
17

>  <i_i_glide_rotatable_bonds>  (35) 
3

>  <r_i_docking_score>  (35) 
-2.52583

>  <r_i_glide_ligand_efficiency>  (35) 
-0.0902082

>  <r_i_glide_ligand_efficiency_sa>  (35) 
-0.273925

>  <r_i_glide_ligand_efficiency_ln>  (35) 
-0.583036

>  <r_i_glide_gscore>  (35) 
-2.52583

>  <r_i_glide_lipo>  (35) 
-0.470688

>  <r_i_glide_hbond>  (35) 
0

>  <r_i_glide_metal>  (35) 
-0

>  <r_i_glide_rewards>  (35) 
-0.801187

>  <r_i_glide_evdw>  (35) 
-21.763

>  <r_i_glide_ecoul>  (35) 
-2.87546

>  <r_i_glide_erotb>  (35) 
0.265511

>  <r_i_glide_esite>  (35) 
0

>  <r_i_glide_emodel>  (35) 
-28.6225

>  <r_i_glide_energy>  (35) 
-24.6384

>  <r_i_glide_einternal>  (35) 
0.0945828

>  <r_i_glide_intrahb_reward>  (35) 
-0

>  <i_i_glide_confnum>  (35) 
1

>  <i_i_glide_posenum>  (35) 
39

>  <r_i_glide_eff_state_penalty>  (35) 
0

>  <ligand_id>  (35) 
14

>  <original_smiles>  (35) 
C=C1C2CC3OCCCC34OC4(Oc3ccccc3)C(O)C(C)C3(C)C1CC23

>  <smiles>  (35) 
[H]OC1([H])C2(Oc3c([H])c([H])c([H])c([H])c3[H])OC23C([H])([H])C([H])([H])C([H])([H])OC3([H])C([H])([H])C2([H])C(=C([H])[H])C3([H])C([H])([H])C2([H])C3(C([H])([H])[H])C1([H])C([H])([H])[H]

$$$$
14:0:1
     RDKit          3D

 58 63  0  0  1  0  0  0  0  0999 V2000
    3.9586   -9.8784    4.1598 C   0  0  0  0  0  0  0  0  0  0  0  0
    2.7583   -9.6393    3.6168 C   0  0  0  0  0  0  0  0  0  0  0  0
    2.3664   -9.2966    2.1936 C   0  0  2  0  0  0  0  0  0  0  0  0
    2.9565   -8.0656    1.4426 C   0  0  0  0  0  0  0  0  0  0  0  0
    4.0394   -7.1538    2.0872 C   0  0  1  0  0  0  0  0  0  0  0  0
    5.1279   -7.2073    1.1599 O   0  0  0  0  0  0  0  0  0  0  0  0
    6.3313   -6.6042    1.6030 C   0  0  0  0  0  0  0  0  0  0  0  0
    6.0702   -5.1099    1.7257 C   0  0  0  0  0  0  0  0  0  0  0  0
    4.9305   -4.8699    2.7182 C   0  0  0  0  0  0  0  0  0  0  0  0
    3.6666   -5.6782    2.3963 C   0  0  1  0  0  0  0  0  0  0  0  0
    2.7281   -5.0555    1.5184 O   0  0  0  0  0  0  0  0  0  0  0  0
    2.2956   -5.1544    2.8940 C   0  0  2  0  0  0  0  0  0  0  0  0
    2.4605   -4.0136    3.7508 O   0  0  0  0  0  0  0  0  0  0  0  0
    2.0690   -2.7819    3.2872 C   0  0  0  0  0  0  0  0  0  0  0  0
    2.5694   -2.2385    2.0814 C   0  0  0  0  0  0  0  0  0  0  0  0
    2.2155   -0.9437    1.6783 C   0  0  0  0  0  0  0  0  0  0  0  0
    1.3582   -0.1619    2.4695 C   0  0  0  0  0  0  0  0  0  0  0  0
    0.8727   -0.6788    3.6813 C   0  0  0  0  0  0  0  0  0  0  0  0
    1.2354   -1.9794    4.0954 C   0  0  0  0  0  0  0  0  0  0  0  0
    1.0180   -5.9350    3.1944 C   0  0  1  0  0  0  0  0  0  0  0  0
    0.2960   -6.2668    2.0166 O   0  0  0  0  0  0  0  0  0  0  0  0
    1.3099   -7.0943    4.1777 C   0  0  1  0  0  0  0  0  0  0  0  0
    1.2141   -6.6240    5.6366 C   0  0  0  0  0  0  0  0  0  0  0  0
    0.6063   -8.4473    3.8857 C   0  0  2  0  0  0  0  0  0  0  0  0
   -0.8621   -8.2856    4.3613 C   0  0  0  0  0  0  0  0  0  0  0  0
    1.4105   -9.7062    4.3203 C   0  0  1  0  0  0  0  0  0  0  0  0
    0.5414  -10.4751    3.3283 C   0  0  0  0  0  0  0  0  0  0  0  0
    0.8811   -9.1971    2.5351 C   0  0  2  0  0  0  0  0  0  0  0  0
    4.0218  -10.1359    5.2080 H   0  0  0  0  0  0  0  0  0  0  0  0
    4.8777   -9.8324    3.5896 H   0  0  0  0  0  0  0  0  0  0  0  0
    2.5510  -10.1833    1.5831 H   0  0  0  0  0  0  0  0  0  0  0  0
    3.4487   -8.5300    0.5898 H   0  0  0  0  0  0  0  0  0  0  0  0
    2.1896   -7.4834    0.9445 H   0  0  0  0  0  0  0  0  0  0  0  0
    4.4050   -7.5818    3.0151 H   0  0  0  0  0  0  0  0  0  0  0  0
    6.6436   -7.0328    2.5561 H   0  0  0  0  0  0  0  0  0  0  0  0
    7.1251   -6.7960    0.8793 H   0  0  0  0  0  0  0  0  0  0  0  0
    6.9708   -4.6038    2.0685 H   0  0  0  0  0  0  0  0  0  0  0  0
    5.8269   -4.6916    0.7488 H   0  0  0  0  0  0  0  0  0  0  0  0
    5.2527   -5.1287    3.7297 H   0  0  0  0  0  0  0  0  0  0  0  0
    4.7155   -3.8039    2.7304 H   0  0  0  0  0  0  0  0  0  0  0  0
    3.2516   -2.7710    1.4449 H   0  0  0  0  0  0  0  0  0  0  0  0
    2.5967   -0.5732    0.7433 H   0  0  0  0  0  0  0  0  0  0  0  0
    1.0860    0.8280    2.1334 H   0  0  0  0  0  0  0  0  0  0  0  0
    0.2253   -0.0683    4.2965 H   0  0  0  0  0  0  0  0  0  0  0  0
    0.8768   -2.3623    5.0421 H   0  0  0  0  0  0  0  0  0  0  0  0
    0.3414   -5.2359    3.6902 H   0  0  0  0  0  0  0  0  0  0  0  0
    0.7301   -7.0053    1.6032 H   0  0  0  0  0  0  0  0  0  0  0  0
    2.3747   -7.2672    4.0995 H   0  0  0  0  0  0  0  0  0  0  0  0
    0.2107   -6.2875    5.9015 H   0  0  0  0  0  0  0  0  0  0  0  0
    1.8920   -5.7863    5.8037 H   0  0  0  0  0  0  0  0  0  0  0  0
    1.5109   -7.4167    6.3218 H   0  0  0  0  0  0  0  0  0  0  0  0
   -1.5731   -8.9569    3.8814 H   0  0  0  0  0  0  0  0  0  0  0  0
   -1.2453   -7.2901    4.1505 H   0  0  0  0  0  0  0  0  0  0  0  0
   -0.9381   -8.4565    5.4347 H   0  0  0  0  0  0  0  0  0  0  0  0
    1.3688  -10.0303    5.3588 H   0  0  0  0  0  0  0  0  0  0  0  0
    0.9858  -11.3931    2.9337 H   0  0  0  0  0  0  0  0  0  0  0  0
   -0.4902  -10.6498    3.6122 H   0  0  0  0  0  0  0  0  0  0  0  0
    0.1882   -8.9772    1.7197 H   0  0  0  0  0  0  0  0  0  0  0  0
  1  2  2  0
  1 29  1  0
  1 30  1  0
  2 26  1  0
  2  3  1  0
  3 28  1  0
  3  4  1  0
  3 31  1  6
  4  5  1  0
  4 32  1  0
  4 33  1  0
  5 10  1  0
  5  6  1  0
  5 34  1  1
  6  7  1  0
  7  8  1  0
  7 35  1  0
  7 36  1  0
  8  9  1  0
  8 37  1  0
  8 38  1  0
  9 10  1  0
  9 39  1  0
  9 40  1  0
 10 12  1  0
 10 11  1  6
 11 12  1  0
 12 13  1  1
 12 20  1  0
 13 14  1  0
 14 19  1  0
 14 15  2  0
 15 16  1  0
 15 41  1  0
 16 17  2  0
 16 42  1  0
 17 18  1  0
 17 43  1  0
 18 19  2  0
 18 44  1  0
 19 45  1  0
 20 21  1  0
 20 22  1  0
 20 46  1  1
 21 47  1  0
 22 23  1  0
 22 24  1  0
 22 48  1  6
 23 49  1  0
 23 50  1  0
 23 51  1  0
 24 28  1  0
 24 25  1  1
 24 26  1  0
 25 52  1  0
 25 53  1  0
 25 54  1  0
 26 27  1  0
 26 55  1  1
 27 28  1  0
 27 56  1  0
 27 57  1  0
 28 58  1  6
M  END
>  <i_m_ct_stereo_status>  (36) 
1

>  <s_m_source_file>  (36) 
/var/tmp/pbs.5076255.sched01/tmpn440o9cr/0yczfkg0t.sdf

>  <i_m_source_file_index>  (36) 
17

>  <i_lp_mmshare_version>  (36) 
48012

>  <i_f3d_flags>  (36) 
0

>  <s_epik_input>  (36) 
W0NIMl0xW0NIMl1bQ0gyXU9bQ0BASF0oW0NAQF0xMjMpW0NIMl1bQ0BASF00W0NAQEhdNVtDQEBdKFtDSDNdKShbQ0BASF0oW0NIMl01KUM0PVtDSDJdKVtDQEhdKFtDSDNdKVtDQEhdKFtPSF0pW0NAQF0zKE8yKU9jNltjSF1bY0hdW2NIXVtjSF1bY0hdNg==

>  <s_epik_cmdline>  (36) 
J2VwaWtfcHl0aG9uJywgJy1waHQnLCAnMi4wJywgJy1waCcsICc3LjAnLCAnLXRuJywgJzgnLCAnLW1hJywgJzIwMCcsICctaW1hZScsICc8aW5maWxlLm1hZT4nLCAnLW9tYWUnLCAnPG91dGZpbGUubWFlPic=

>  <r_lp_tautomer_probability>  (36) 
1

>  <r_epik_Ionization_Penalty>  (36) 
3.5591e-06

>  <r_epik_Ionization_Penalty_Charging>  (36) 
0

>  <r_epik_Ionization_Penalty_Neutral>  (36) 
3.5591e-06

>  <r_epik_State_Penalty>  (36) 
-0

>  <r_epik_Charging_Adjusted_Penalty>  (36) 
0

>  <i_epik_Tot_Q>  (36) 
0

>  <i_epik_Tot_abs_Q>  (36) 
0

>  <s_lp_Force_Field>  (36) 
OPLS3e

>  <r_lp_Energy>  (36) 
80.8455

>  <b_lp_Chiralities_Consistent>  (36) 
1

>  <s_lp_Variant>  (36) 
14:0-1

>  <s_i_glide_gridfile>  (36) 
pfpi4k_grid

>  <i_i_glide_lignum>  (36) 
17

>  <i_i_glide_rotatable_bonds>  (36) 
3

>  <r_i_docking_score>  (36) 
-2.28101

>  <r_i_glide_ligand_efficiency>  (36) 
-0.0814647

>  <r_i_glide_ligand_efficiency_sa>  (36) 
-0.247375

>  <r_i_glide_ligand_efficiency_ln>  (36) 
-0.526524

>  <r_i_glide_gscore>  (36) 
-2.28101

>  <r_i_glide_lipo>  (36) 
-0.230021

>  <r_i_glide_hbond>  (36) 
0

>  <r_i_glide_metal>  (36) 
-0

>  <r_i_glide_rewards>  (36) 
-0.801187

>  <r_i_glide_evdw>  (36) 
-20.5778

>  <r_i_glide_ecoul>  (36) 
-3.20257

>  <r_i_glide_erotb>  (36) 
0.265511

>  <r_i_glide_esite>  (36) 
-0.00603773

>  <r_i_glide_emodel>  (36) 
-24.5537

>  <r_i_glide_energy>  (36) 
-23.7804

>  <r_i_glide_einternal>  (36) 
5.43354

>  <r_i_glide_intrahb_reward>  (36) 
-0

>  <i_i_glide_confnum>  (36) 
3

>  <i_i_glide_posenum>  (36) 
25

>  <r_i_glide_eff_state_penalty>  (36) 
0

>  <ligand_id>  (36) 
14

>  <original_smiles>  (36) 
C=C1C2CC3OCCCC34OC4(Oc3ccccc3)C(O)C(C)C3(C)C1CC23

>  <smiles>  (36) 
[H]OC1([H])C2(Oc3c([H])c([H])c([H])c([H])c3[H])OC23C([H])([H])C([H])([H])C([H])([H])OC3([H])C([H])([H])C2([H])C(=C([H])[H])C3([H])C([H])([H])C2([H])C3(C([H])([H])[H])C1([H])C([H])([H])[H]

$$$$
14:0:2
     RDKit          3D

 58 63  0  0  1  0  0  0  0  0999 V2000
    3.5624  -10.0180    4.4647 C   0  0  0  0  0  0  0  0  0  0  0  0
    2.4737   -9.5665    3.8233 C   0  0  0  0  0  0  0  0  0  0  0  0
    2.2414   -9.3218    2.3562 C   0  0  2  0  0  0  0  0  0  0  0  0
    3.1381   -8.3703    1.5216 C   0  0  0  0  0  0  0  0  0  0  0  0
    4.3914   -7.6869    2.1232 C   0  0  1  0  0  0  0  0  0  0  0  0
    5.4547   -8.1055    1.2637 O   0  0  0  0  0  0  0  0  0  0  0  0
    6.7511   -7.7459    1.7018 C   0  0  0  0  0  0  0  0  0  0  0  0
    6.8549   -6.2282    1.6327 C   0  0  0  0  0  0  0  0  0  0  0  0
    5.7747   -5.5974    2.5144 C   0  0  0  0  0  0  0  0  0  0  0  0
    4.3651   -6.1386    2.2387 C   0  0  1  0  0  0  0  0  0  0  0  0
    3.6344   -5.4417    1.2388 O   0  0  0  0  0  0  0  0  0  0  0  0
    3.1493   -5.2373    2.5802 C   0  0  2  0  0  0  0  0  0  0  0  0
    3.5826   -4.0674    3.2899 O   0  0  0  0  0  0  0  0  0  0  0  0
    3.3239   -2.8378    2.7311 C   0  0  0  0  0  0  0  0  0  0  0  0
    3.6418   -2.5044    1.3889 C   0  0  0  0  0  0  0  0  0  0  0  0
    3.4067   -1.2254    0.8811 C   0  0  0  0  0  0  0  0  0  0  0  0
    2.8806   -0.2188    1.7069 C   0  0  0  0  0  0  0  0  0  0  0  0
    2.5914   -0.5148    3.0524 C   0  0  0  0  0  0  0  0  0  0  0  0
    2.8168   -1.8047    3.5693 C   0  0  0  0  0  0  0  0  0  0  0  0
    1.6976   -5.6487    2.8801 C   0  0  1  0  0  0  0  0  0  0  0  0
    0.9743   -5.9452    1.6989 O   0  0  0  0  0  0  0  0  0  0  0  0
    1.6659   -6.7061    4.0043 C   0  0  1  0  0  0  0  0  0  0  0  0
    1.6503   -6.0395    5.3876 C   0  0  0  0  0  0  0  0  0  0  0  0
    0.6711   -7.8774    3.8199 C   0  0  2  0  0  0  0  0  0  0  0  0
   -0.7272   -7.3022    4.1864 C   0  0  0  0  0  0  0  0  0  0  0  0
    1.1172   -9.2251    4.4411 C   0  0  1  0  0  0  0  0  0  0  0  0
    0.1245   -9.8748    3.4807 C   0  0  0  0  0  0  0  0  0  0  0  0
    0.8075   -8.8304    2.5837 C   0  0  2  0  0  0  0  0  0  0  0  0
    3.5263  -10.1530    5.5323 H   0  0  0  0  0  0  0  0  0  0  0  0
    4.4821  -10.2610    3.9444 H   0  0  0  0  0  0  0  0  0  0  0  0
    2.2090  -10.2839    1.8497 H   0  0  0  0  0  0  0  0  0  0  0  0
    3.4983   -9.0130    0.7227 H   0  0  0  0  0  0  0  0  0  0  0  0
    2.5303   -7.6630    0.9719 H   0  0  0  0  0  0  0  0  0  0  0  0
    4.6122   -8.0656    3.1158 H   0  0  0  0  0  0  0  0  0  0  0  0
    6.9183   -8.1147    2.7147 H   0  0  0  0  0  0  0  0  0  0  0  0
    7.4930   -8.2112    1.0517 H   0  0  0  0  0  0  0  0  0  0  0  0
    7.8385   -5.9126    1.9733 H   0  0  0  0  0  0  0  0  0  0  0  0
    6.7553   -5.8927    0.6000 H   0  0  0  0  0  0  0  0  0  0  0  0
    6.0002   -5.7704    3.5679 H   0  0  0  0  0  0  0  0  0  0  0  0
    5.7850   -4.5192    2.3557 H   0  0  0  0  0  0  0  0  0  0  0  0
    4.1100   -3.2049    0.7162 H   0  0  0  0  0  0  0  0  0  0  0  0
    3.6407   -1.0342   -0.1575 H   0  0  0  0  0  0  0  0  0  0  0  0
    2.7118    0.7713    1.2972 H   0  0  0  0  0  0  0  0  0  0  0  0
    2.1939    0.2784    3.6892 H   0  0  0  0  0  0  0  0  0  0  0  0
    2.6006   -2.0151    4.6135 H   0  0  0  0  0  0  0  0  0  0  0  0
    1.2065   -4.7461    3.2395 H   0  0  0  0  0  0  0  0  0  0  0  0
    1.3650   -6.7200    1.3127 H   0  0  0  0  0  0  0  0  0  0  0  0
    2.6600   -7.1286    4.0111 H   0  0  0  0  0  0  0  0  0  0  0  0
    0.7539   -5.4398    5.5479 H   0  0  0  0  0  0  0  0  0  0  0  0
    2.5092   -5.3738    5.4961 H   0  0  0  0  0  0  0  0  0  0  0  0
    1.7235   -6.7869    6.1753 H   0  0  0  0  0  0  0  0  0  0  0  0
   -1.5613   -7.8350    3.7423 H   0  0  0  0  0  0  0  0  0  0  0  0
   -0.8396   -6.2774    3.8395 H   0  0  0  0  0  0  0  0  0  0  0  0
   -0.8743   -7.3021    5.2668 H   0  0  0  0  0  0  0  0  0  0  0  0
    0.9680   -9.3916    5.5009 H   0  0  0  0  0  0  0  0  0  0  0  0
    0.3579  -10.9069    3.2308 H   0  0  0  0  0  0  0  0  0  0  0  0
   -0.9469   -9.7667    3.6833 H   0  0  0  0  0  0  0  0  0  0  0  0
    0.2100   -8.5570    1.7237 H   0  0  0  0  0  0  0  0  0  0  0  0
  1  2  2  0
  1 29  1  0
  1 30  1  0
  2 26  1  0
  2  3  1  0
  3 28  1  0
  3  4  1  0
  3 31  1  6
  4  5  1  0
  4 32  1  0
  4 33  1  0
  5 10  1  0
  5  6  1  0
  5 34  1  1
  6  7  1  0
  7  8  1  0
  7 35  1  0
  7 36  1  0
  8  9  1  0
  8 37  1  0
  8 38  1  0
  9 10  1  0
  9 39  1  0
  9 40  1  0
 10 12  1  0
 10 11  1  6
 11 12  1  0
 12 13  1  1
 12 20  1  0
 13 14  1  0
 14 19  1  0
 14 15  2  0
 15 16  1  0
 15 41  1  0
 16 17  2  0
 16 42  1  0
 17 18  1  0
 17 43  1  0
 18 19  2  0
 18 44  1  0
 19 45  1  0
 20 21  1  0
 20 22  1  0
 20 46  1  1
 21 47  1  0
 22 23  1  0
 22 24  1  0
 22 48  1  1
 23 49  1  0
 23 50  1  0
 23 51  1  0
 24 28  1  0
 24 25  1  1
 24 26  1  0
 25 52  1  0
 25 53  1  0
 25 54  1  0
 26 27  1  0
 26 55  1  1
 27 28  1  0
 27 56  1  0
 27 57  1  0
 28 58  1  6
M  END
>  <i_m_ct_stereo_status>  (37) 
1

>  <s_m_source_file>  (37) 
/var/tmp/pbs.5076255.sched01/tmpn440o9cr/0yczfkg0t.sdf

>  <i_m_source_file_index>  (37) 
17

>  <i_lp_mmshare_version>  (37) 
48012

>  <i_f3d_flags>  (37) 
0

>  <s_epik_input>  (37) 
W0NIMl0xW0NIMl1bQ0gyXU9bQ0BASF0oW0NAQF0xMjMpW0NIMl1bQ0BASF00W0NAQEhdNVtDQEBdKFtDSDNdKShbQ0BASF0oW0NIMl01KUM0PVtDSDJdKVtDQEhdKFtDSDNdKVtDQEhdKFtPSF0pW0NAQF0zKE8yKU9jNltjSF1bY0hdW2NIXVtjSF1bY0hdNg==

>  <s_epik_cmdline>  (37) 
J2VwaWtfcHl0aG9uJywgJy1waHQnLCAnMi4wJywgJy1waCcsICc3LjAnLCAnLXRuJywgJzgnLCAnLW1hJywgJzIwMCcsICctaW1hZScsICc8aW5maWxlLm1hZT4nLCAnLW9tYWUnLCAnPG91dGZpbGUubWFlPic=

>  <r_lp_tautomer_probability>  (37) 
1

>  <r_epik_Ionization_Penalty>  (37) 
3.5591e-06

>  <r_epik_Ionization_Penalty_Charging>  (37) 
0

>  <r_epik_Ionization_Penalty_Neutral>  (37) 
3.5591e-06

>  <r_epik_State_Penalty>  (37) 
-0

>  <r_epik_Charging_Adjusted_Penalty>  (37) 
0

>  <i_epik_Tot_Q>  (37) 
0

>  <i_epik_Tot_abs_Q>  (37) 
0

>  <s_lp_Force_Field>  (37) 
OPLS3e

>  <r_lp_Energy>  (37) 
80.8455

>  <b_lp_Chiralities_Consistent>  (37) 
1

>  <s_lp_Variant>  (37) 
14:0-1

>  <s_i_glide_gridfile>  (37) 
pfpi4k_grid

>  <i_i_glide_lignum>  (37) 
17

>  <i_i_glide_rotatable_bonds>  (37) 
3

>  <r_i_docking_score>  (37) 
-2.23489

>  <r_i_glide_ligand_efficiency>  (37) 
-0.0798174

>  <r_i_glide_ligand_efficiency_sa>  (37) 
-0.242373

>  <r_i_glide_ligand_efficiency_ln>  (37) 
-0.515877

>  <r_i_glide_gscore>  (37) 
-2.23489

>  <r_i_glide_lipo>  (37) 
-0.257886

>  <r_i_glide_hbond>  (37) 
0

>  <r_i_glide_metal>  (37) 
-0

>  <r_i_glide_rewards>  (37) 
-0.801187

>  <r_i_glide_evdw>  (37) 
-20.8815

>  <r_i_glide_ecoul>  (37) 
-2.64834

>  <r_i_glide_erotb>  (37) 
0.265511

>  <r_i_glide_esite>  (37) 
0

>  <r_i_glide_emodel>  (37) 
-24.4739

>  <r_i_glide_energy>  (37) 
-23.5298

>  <r_i_glide_einternal>  (37) 
4.84082

>  <r_i_glide_intrahb_reward>  (37) 
-0

>  <i_i_glide_confnum>  (37) 
3

>  <i_i_glide_posenum>  (37) 
33

>  <r_i_glide_eff_state_penalty>  (37) 
0

>  <ligand_id>  (37) 
14

>  <original_smiles>  (37) 
C=C1C2CC3OCCCC34OC4(Oc3ccccc3)C(O)C(C)C3(C)C1CC23

>  <smiles>  (37) 
[H]OC1([H])C2(Oc3c([H])c([H])c([H])c([H])c3[H])OC23C([H])([H])C([H])([H])C([H])([H])OC3([H])C([H])([H])C2([H])C(=C([H])[H])C3([H])C([H])([H])C2([H])C3(C([H])([H])[H])C1([H])C([H])([H])[H]

$$$$
15:0:0
     RDKit          3D

 43 47  0  0  1  0  0  0  0  0999 V2000
    7.3754   -5.8691    2.5734 C   0  0  0  0  0  0  0  0  0  0  0  0
    6.0360   -5.2389    2.1495 C   0  0  2  0  0  0  0  0  0  0  0  0
    4.8026   -6.0017    2.7368 C   0  0  2  0  0  0  0  0  0  0  0  0
    4.7160   -7.3358    2.0053 C   0  0  0  0  0  0  0  0  0  0  0  0
    4.6080   -7.2447    0.6771 C   0  0  0  0  0  0  0  0  0  0  0  0
    4.5904   -5.8254    0.1155 C   0  0  2  0  0  0  0  0  0  0  0  0
    5.8807   -5.1309    0.5901 C   0  0  1  0  0  0  0  0  0  0  0  0
    5.9501   -3.7140   -0.0101 C   0  0  0  0  0  0  0  0  0  0  0  0
    4.7412   -2.8329    0.4712 C   0  0  0  0  0  0  0  0  0  0  0  0
    4.9012   -2.4709    1.8050 O   0  0  0  0  0  0  0  0  0  0  0  0
    5.7891   -1.3796    1.8428 C   0  0  0  0  0  0  0  0  0  0  0  0
    5.4710   -0.6848    0.5256 C   0  0  0  0  0  0  0  0  0  0  0  0
    4.7573   -1.6341   -0.2434 O   0  0  0  0  0  0  0  0  0  0  0  0
    3.3400   -3.5462    0.3091 C   0  0  1  0  0  0  0  0  0  0  0  0
    2.8058   -3.4167   -1.1393 C   0  0  0  0  0  0  0  0  0  0  0  0
    3.4229   -5.0366    0.7951 C   0  0  1  0  0  0  0  0  0  0  0  0
    2.1863   -5.6935    0.4953 O   0  0  0  0  0  0  0  0  0  0  0  0
    1.4858   -6.1161    1.5420 C   0  0  0  0  0  0  0  0  0  0  0  0
    0.3607   -6.6285    1.5043 O   0  0  0  0  0  0  0  0  0  0  0  0
    2.2060   -5.7841    2.8193 C   0  0  0  0  0  0  0  0  0  0  0  0
    3.5311   -5.1681    2.3543 C   0  0  1  0  0  0  0  0  0  0  0  0
    7.4989   -6.8815    2.1829 H   0  0  0  0  0  0  0  0  0  0  0  0
    7.4591   -5.9228    3.6616 H   0  0  0  0  0  0  0  0  0  0  0  0
    8.2160   -5.2719    2.2155 H   0  0  0  0  0  0  0  0  0  0  0  0
    6.0558   -4.2572    2.6198 H   0  0  0  0  0  0  0  0  0  0  0  0
    4.8781   -6.1490    3.8174 H   0  0  0  0  0  0  0  0  0  0  0  0
    4.7628   -8.2635    2.5714 H   0  0  0  0  0  0  0  0  0  0  0  0
    4.5520   -8.0915    0.0101 H   0  0  0  0  0  0  0  0  0  0  0  0
    4.5414   -5.8470   -0.9638 H   0  0  0  0  0  0  0  0  0  0  0  0
    6.7049   -5.6864    0.1483 H   0  0  0  0  0  0  0  0  0  0  0  0
    6.9028   -3.2441    0.2241 H   0  0  0  0  0  0  0  0  0  0  0  0
    5.8760   -3.7976   -1.0995 H   0  0  0  0  0  0  0  0  0  0  0  0
    5.6406   -0.7379    2.7183 H   0  0  0  0  0  0  0  0  0  0  0  0
    6.8044   -1.7752    1.8411 H   0  0  0  0  0  0  0  0  0  0  0  0
    4.8479    0.1919    0.6741 H   0  0  0  0  0  0  0  0  0  0  0  0
    6.3723   -0.3886    0.0023 H   0  0  0  0  0  0  0  0  0  0  0  0
    2.6167   -3.0090    0.9346 H   0  0  0  0  0  0  0  0  0  0  0  0
    3.4810   -3.8611   -1.8743 H   0  0  0  0  0  0  0  0  0  0  0  0
    2.6637   -2.3683   -1.4188 H   0  0  0  0  0  0  0  0  0  0  0  0
    1.8258   -3.8901   -1.2584 H   0  0  0  0  0  0  0  0  0  0  0  0
    1.6105   -5.0477    3.3656 H   0  0  0  0  0  0  0  0  0  0  0  0
    2.3499   -6.6722    3.4429 H   0  0  0  0  0  0  0  0  0  0  0  0
    3.6058   -4.1895    2.8354 H   0  0  0  0  0  0  0  0  0  0  0  0
  1  2  1  0
  1 22  1  0
  1 23  1  0
  1 24  1  0
  2  7  1  0
  2  3  1  0
  2 25  1  1
  3 21  1  0
  3  4  1  0
  3 26  1  1
  4  5  2  0
  4 27  1  0
  5  6  1  0
  5 28  1  0
  6 16  1  0
  6  7  1  0
  6 29  1  6
  7  8  1  0
  7 30  1  6
  8  9  1  0
  8 31  1  0
  8 32  1  0
  9 13  1  0
  9 10  1  0
  9 14  1  0
 10 11  1  0
 11 12  1  0
 11 33  1  0
 11 34  1  0
 12 13  1  0
 12 35  1  0
 12 36  1  0
 14 15  1  0
 14 16  1  0
 14 37  1  1
 15 38  1  0
 15 39  1  0
 15 40  1  0
 16 21  1  0
 16 17  1  6
 17 18  1  0
 18 19  2  0
 18 20  1  0
 20 21  1  0
 20 41  1  0
 20 42  1  0
 21 43  1  1
M  END
>  <i_m_ct_stereo_status>  (38) 
1

>  <s_m_source_file>  (38) 
/var/tmp/pbs.5076255.sched01/tmpn440o9cr/0yczfkg0t.sdf

>  <i_m_source_file_index>  (38) 
18

>  <i_lp_mmshare_version>  (38) 
48012

>  <i_f3d_flags>  (38) 
0

>  <s_epik_input>  (38) 
W0NIM11bQ0BASF0xW0NASF0oW0NIXT1bQ0hdMilbQ0BIXShbQ0gyXUMoTzMpPU8pW0NAQF0zKFtDQEBIXTRbQ0gzXSlbQ0BIXTJbQ0BIXTFbQ0gyXUM0NU9bQ0gyXVtDSDJdTzU=

>  <s_epik_cmdline>  (38) 
J2VwaWtfcHl0aG9uJywgJy1waHQnLCAnMi4wJywgJy1waCcsICc3LjAnLCAnLXRuJywgJzgnLCAnLW1hJywgJzIwMCcsICctaW1hZScsICc8aW5maWxlLm1hZT4nLCAnLW9tYWUnLCAnPG91dGZpbGUubWFlPic=

>  <r_lp_tautomer_probability>  (38) 
1

>  <r_epik_Ionization_Penalty>  (38) 
1.61027e-13

>  <r_epik_Ionization_Penalty_Charging>  (38) 
0

>  <r_epik_Ionization_Penalty_Neutral>  (38) 
1.61027e-13

>  <r_epik_State_Penalty>  (38) 
-0

>  <r_epik_Charging_Adjusted_Penalty>  (38) 
0

>  <i_epik_Tot_Q>  (38) 
0

>  <i_epik_Tot_abs_Q>  (38) 
0

>  <s_epik_Chemistry_Notes>  (38) 
This compound has an ester and may undergo hydrolysis at high or low pH.

>  <s_lp_Force_Field>  (38) 
OPLS3e

>  <r_lp_Energy>  (38) 
37.1778

>  <b_lp_Chiralities_Consistent>  (38) 
1

>  <s_lp_Variant>  (38) 
15:0-1

>  <s_i_glide_gridfile>  (38) 
pfpi4k_grid

>  <i_i_glide_lignum>  (38) 
18

>  <i_i_glide_rotatable_bonds>  (38) 
0

>  <r_i_docking_score>  (38) 
-3.84155

>  <r_i_glide_ligand_efficiency>  (38) 
-0.182931

>  <r_i_glide_ligand_efficiency_sa>  (38) 
-0.504692

>  <r_i_glide_ligand_efficiency_ln>  (38) 
-0.949815

>  <r_i_glide_gscore>  (38) 
-3.84155

>  <r_i_glide_lipo>  (38) 
-0.764897

>  <r_i_glide_hbond>  (38) 
-0.10661

>  <r_i_glide_metal>  (38) 
-0

>  <r_i_glide_rewards>  (38) 
-1.45184

>  <r_i_glide_evdw>  (38) 
-23.2536

>  <r_i_glide_ecoul>  (38) 
-1.92878

>  <r_i_glide_erotb>  (38) 
0

>  <r_i_glide_esite>  (38) 
-0.0662054

>  <r_i_glide_emodel>  (38) 
-30.8259

>  <r_i_glide_energy>  (38) 
-25.1824

>  <r_i_glide_einternal>  (38) 
0

>  <r_i_glide_intrahb_reward>  (38) 
-0

>  <i_i_glide_confnum>  (38) 
5

>  <i_i_glide_posenum>  (38) 
6

>  <r_i_glide_eff_state_penalty>  (38) 
0

>  <ligand_id>  (38) 
15

>  <original_smiles>  (38) 
CC1C2C=CC3C1CC1(OCCO1)C(C)C31OC(=O)CC21

>  <smiles>  (38) 
[H]C1=C([H])C2([H])C3([H])C([H])([H])C4(OC([H])([H])C([H])([H])O4)C([H])(C([H])([H])[H])C24OC(=O)C([H])([H])C4([H])C1([H])C3([H])C([H])([H])[H]

$$$$
15:0:1
     RDKit          3D

 43 47  0  0  1  0  0  0  0  0999 V2000
    8.1985   -2.6447   -1.2161 C   0  0  0  0  0  0  0  0  0  0  0  0
    6.7288   -2.5141   -0.7864 C   0  0  2  0  0  0  0  0  0  0  0  0
    6.5610   -2.6211    0.7580 C   0  0  2  0  0  0  0  0  0  0  0  0
    6.8867   -4.0590    1.1381 C   0  0  0  0  0  0  0  0  0  0  0  0
    6.1288   -4.9879    0.5316 C   0  0  0  0  0  0  0  0  0  0  0  0
    5.0719   -4.4443   -0.4168 C   0  0  2  0  0  0  0  0  0  0  0  0
    5.7944   -3.5800   -1.4755 C   0  0  1  0  0  0  0  0  0  0  0  0
    4.7961   -3.0678   -2.5138 C   0  0  0  0  0  0  0  0  0  0  0  0
    3.6966   -2.1758   -1.8611 C   0  0  0  0  0  0  0  0  0  0  0  0
    4.2145   -0.9382   -1.5139 O   0  0  0  0  0  0  0  0  0  0  0  0
    4.2941   -0.2519   -2.7265 C   0  0  0  0  0  0  0  0  0  0  0  0
    3.0816   -0.7339   -3.4823 C   0  0  0  0  0  0  0  0  0  0  0  0
    2.7317   -1.9394   -2.8256 O   0  0  0  0  0  0  0  0  0  0  0  0
    3.0648   -2.7941   -0.5669 C   0  0  1  0  0  0  0  0  0  0  0  0
    1.9359   -3.7816   -0.9413 C   0  0  0  0  0  0  0  0  0  0  0  0
    4.1624   -3.4337    0.3459 C   0  0  1  0  0  0  0  0  0  0  0  0
    3.5166   -4.1199    1.4192 O   0  0  0  0  0  0  0  0  0  0  0  0
    3.7541   -3.6306    2.6382 C   0  0  0  0  0  0  0  0  0  0  0  0
    3.2873   -4.0604    3.6908 O   0  0  0  0  0  0  0  0  0  0  0  0
    4.6863   -2.4415    2.5548 C   0  0  0  0  0  0  0  0  0  0  0  0
    5.0568   -2.3602    1.0786 C   0  0  1  0  0  0  0  0  0  0  0  0
    8.6320   -3.6199   -0.9918 H   0  0  0  0  0  0  0  0  0  0  0  0
    8.8126   -1.8862   -0.7213 H   0  0  0  0  0  0  0  0  0  0  0  0
    8.2920   -2.4728   -2.2880 H   0  0  0  0  0  0  0  0  0  0  0  0
    6.4304   -1.5074   -1.0709 H   0  0  0  0  0  0  0  0  0  0  0  0
    7.2083   -1.9142    1.2826 H   0  0  0  0  0  0  0  0  0  0  0  0
    7.6901   -4.2768    1.8301 H   0  0  0  0  0  0  0  0  0  0  0  0
    6.2427   -6.0502    0.6840 H   0  0  0  0  0  0  0  0  0  0  0  0
    4.5134   -5.2667   -0.8675 H   0  0  0  0  0  0  0  0  0  0  0  0
    6.4196   -4.2353   -2.0625 H   0  0  0  0  0  0  0  0  0  0  0  0
    5.3325   -2.5687   -3.3217 H   0  0  0  0  0  0  0  0  0  0  0  0
    4.2988   -3.9295   -2.9784 H   0  0  0  0  0  0  0  0  0  0  0  0
    4.3013    0.8359   -2.6639 H   0  0  0  0  0  0  0  0  0  0  0  0
    5.2391   -0.5807   -3.1207 H   0  0  0  0  0  0  0  0  0  0  0  0
    2.2841    0.0041   -3.3842 H   0  0  0  0  0  0  0  0  0  0  0  0
    3.3033   -0.8867   -4.5347 H   0  0  0  0  0  0  0  0  0  0  0  0
    2.6235   -1.9736    0.0005 H   0  0  0  0  0  0  0  0  0  0  0  0
    2.3053   -4.6020   -1.5222 H   0  0  0  0  0  0  0  0  0  0  0  0
    1.1317   -3.2857   -1.4902 H   0  0  0  0  0  0  0  0  0  0  0  0
    1.5143   -4.2563   -0.0637 H   0  0  0  0  0  0  0  0  0  0  0  0
    4.1454   -1.5549    2.8727 H   0  0  0  0  0  0  0  0  0  0  0  0
    5.5507   -2.5910    3.1952 H   0  0  0  0  0  0  0  0  0  0  0  0
    4.8061   -1.3521    0.7546 H   0  0  0  0  0  0  0  0  0  0  0  0
  1  2  1  0
  1 22  1  0
  1 23  1  0
  1 24  1  0
  2  7  1  0
  2  3  1  0
  2 25  1  6
  3 21  1  0
  3  4  1  0
  3 26  1  1
  4  5  2  0
  4 27  1  0
  5  6  1  0
  5 28  1  0
  6 16  1  0
  6  7  1  0
  6 29  1  6
  7  8  1  0
  7 30  1  6
  8  9  1  0
  8 31  1  0
  8 32  1  0
  9 13  1  0
  9 10  1  0
  9 14  1  0
 10 11  1  0
 11 12  1  0
 11 33  1  0
 11 34  1  0
 12 13  1  0
 12 35  1  0
 12 36  1  0
 14 15  1  0
 14 16  1  0
 14 37  1  1
 15 38  1  0
 15 39  1  0
 15 40  1  0
 16 21  1  0
 16 17  1  1
 17 18  1  0
 18 19  2  0
 18 20  1  0
 20 21  1  0
 20 41  1  0
 20 42  1  0
 21 43  1  6
M  END
>  <i_m_ct_stereo_status>  (39) 
1

>  <s_m_source_file>  (39) 
/var/tmp/pbs.5076255.sched01/tmpn440o9cr/0yczfkg0t.sdf

>  <i_m_source_file_index>  (39) 
18

>  <i_lp_mmshare_version>  (39) 
48012

>  <i_f3d_flags>  (39) 
0

>  <s_epik_input>  (39) 
W0NIM11bQ0BASF0xW0NASF0oW0NIXT1bQ0hdMilbQ0BIXShbQ0gyXUMoTzMpPU8pW0NAQF0zKFtDQEBIXTRbQ0gzXSlbQ0BIXTJbQ0BIXTFbQ0gyXUM0NU9bQ0gyXVtDSDJdTzU=

>  <s_epik_cmdline>  (39) 
J2VwaWtfcHl0aG9uJywgJy1waHQnLCAnMi4wJywgJy1waCcsICc3LjAnLCAnLXRuJywgJzgnLCAnLW1hJywgJzIwMCcsICctaW1hZScsICc8aW5maWxlLm1hZT4nLCAnLW9tYWUnLCAnPG91dGZpbGUubWFlPic=

>  <r_lp_tautomer_probability>  (39) 
1

>  <r_epik_Ionization_Penalty>  (39) 
1.61027e-13

>  <r_epik_Ionization_Penalty_Charging>  (39) 
0

>  <r_epik_Ionization_Penalty_Neutral>  (39) 
1.61027e-13

>  <r_epik_State_Penalty>  (39) 
-0

>  <r_epik_Charging_Adjusted_Penalty>  (39) 
0

>  <i_epik_Tot_Q>  (39) 
0

>  <i_epik_Tot_abs_Q>  (39) 
0

>  <s_epik_Chemistry_Notes>  (39) 
This compound has an ester and may undergo hydrolysis at high or low pH.

>  <s_lp_Force_Field>  (39) 
OPLS3e

>  <r_lp_Energy>  (39) 
37.1778

>  <b_lp_Chiralities_Consistent>  (39) 
1

>  <s_lp_Variant>  (39) 
15:0-1

>  <s_i_glide_gridfile>  (39) 
pfpi4k_grid

>  <i_i_glide_lignum>  (39) 
18

>  <i_i_glide_rotatable_bonds>  (39) 
0

>  <r_i_docking_score>  (39) 
-3.23568

>  <r_i_glide_ligand_efficiency>  (39) 
-0.15408

>  <r_i_glide_ligand_efficiency_sa>  (39) 
-0.425095

>  <r_i_glide_ligand_efficiency_ln>  (39) 
-0.800016

>  <r_i_glide_gscore>  (39) 
-3.23568

>  <r_i_glide_lipo>  (39) 
-0.97296

>  <r_i_glide_hbond>  (39) 
0

>  <r_i_glide_metal>  (39) 
-0

>  <r_i_glide_rewards>  (39) 
-1.43072

>  <r_i_glide_evdw>  (39) 
-15.9012

>  <r_i_glide_ecoul>  (39) 
0.0160603

>  <r_i_glide_erotb>  (39) 
0

>  <r_i_glide_esite>  (39) 
-0.0393552

>  <r_i_glide_emodel>  (39) 
-20.2737

>  <r_i_glide_energy>  (39) 
-15.8851

>  <r_i_glide_einternal>  (39) 
0

>  <r_i_glide_intrahb_reward>  (39) 
-0

>  <i_i_glide_confnum>  (39) 
3

>  <i_i_glide_posenum>  (39) 
30

>  <r_i_glide_eff_state_penalty>  (39) 
0

>  <ligand_id>  (39) 
15

>  <original_smiles>  (39) 
CC1C2C=CC3C1CC1(OCCO1)C(C)C31OC(=O)CC21

>  <smiles>  (39) 
[H]C1=C([H])C2([H])C3([H])C([H])([H])C4(OC([H])([H])C([H])([H])O4)C([H])(C([H])([H])[H])C24OC(=O)C([H])([H])C4([H])C1([H])C3([H])C([H])([H])[H]

$$$$
15:0:2
     RDKit          3D

 43 47  0  0  1  0  0  0  0  0999 V2000
    8.6050   -5.4507    1.8534 C   0  0  0  0  0  0  0  0  0  0  0  0
    7.1967   -5.2691    1.2538 C   0  0  2  0  0  0  0  0  0  0  0  0
    7.1489   -4.2225    0.1007 C   0  0  2  0  0  0  0  0  0  0  0  0
    7.3257   -2.8506    0.7127 C   0  0  0  0  0  0  0  0  0  0  0  0
    6.4001   -2.5219    1.6304 C   0  0  0  0  0  0  0  0  0  0  0  0
    5.3552   -3.5835    1.9130 C   0  0  2  0  0  0  0  0  0  0  0  0
    6.0941   -4.8885    2.3228 C   0  0  1  0  0  0  0  0  0  0  0  0
    5.0757   -5.9878    2.6715 C   0  0  0  0  0  0  0  0  0  0  0  0
    4.1555   -6.3219    1.4600 C   0  0  0  0  0  0  0  0  0  0  0  0
    4.8602   -7.0484    0.5135 O   0  0  0  0  0  0  0  0  0  0  0  0
    4.9108   -8.3684    0.9959 C   0  0  0  0  0  0  0  0  0  0  0  0
    3.5651   -8.4849    1.7094 C   0  0  0  0  0  0  0  0  0  0  0  0
    3.1306   -7.1483    1.8884 O   0  0  0  0  0  0  0  0  0  0  0  0
    3.5514   -5.0412    0.7502 C   0  0  1  0  0  0  0  0  0  0  0  0
    2.3076   -4.5311    1.5167 C   0  0  0  0  0  0  0  0  0  0  0  0
    4.6320   -3.9306    0.5781 C   0  0  1  0  0  0  0  0  0  0  0  0
    4.0155   -2.7494    0.0637 O   0  0  0  0  0  0  0  0  0  0  0  0
    4.4258   -2.3520   -1.1419 C   0  0  0  0  0  0  0  0  0  0  0  0
    4.0492   -1.3600   -1.7625 O   0  0  0  0  0  0  0  0  0  0  0  0
    5.4683   -3.3114   -1.6720 C   0  0  0  0  0  0  0  0  0  0  0  0
    5.7065   -4.2787   -0.5162 C   0  0  1  0  0  0  0  0  0  0  0  0
    8.9837   -4.5463    2.3179 H   0  0  0  0  0  0  0  0  0  0  0  0
    9.3255   -5.7494    1.0885 H   0  0  0  0  0  0  0  0  0  0  0  0
    8.6093   -6.2374    2.6141 H   0  0  0  0  0  0  0  0  0  0  0  0
    6.9832   -6.2420    0.8193 H   0  0  0  0  0  0  0  0  0  0  0  0
    7.9371   -4.3788   -0.6461 H   0  0  0  0  0  0  0  0  0  0  0  0
    8.1702   -2.2331    0.4251 H   0  0  0  0  0  0  0  0  0  0  0  0
    6.4116   -1.5946    2.1824 H   0  0  0  0  0  0  0  0  0  0  0  0
    4.6755   -3.2394    2.6924 H   0  0  0  0  0  0  0  0  0  0  0  0
    6.6048   -4.6767    3.2612 H   0  0  0  0  0  0  0  0  0  0  0  0
    5.5775   -6.8750    3.0404 H   0  0  0  0  0  0  0  0  0  0  0  0
    4.4357   -5.6102    3.4827 H   0  0  0  0  0  0  0  0  0  0  0  0
    5.0218   -9.0901    0.1860 H   0  0  0  0  0  0  0  0  0  0  0  0
    5.7468   -8.4482    1.6893 H   0  0  0  0  0  0  0  0  0  0  0  0
    2.8362   -9.0173    1.0996 H   0  0  0  0  0  0  0  0  0  0  0  0
    3.6557   -8.9868    2.6694 H   0  0  0  0  0  0  0  0  0  0  0  0
    3.2019   -5.3410   -0.2356 H   0  0  0  0  0  0  0  0  0  0  0  0
    2.5272   -4.2360    2.5447 H   0  0  0  0  0  0  0  0  0  0  0  0
    1.5214   -5.2880    1.5389 H   0  0  0  0  0  0  0  0  0  0  0  0
    1.8838   -3.6581    1.0167 H   0  0  0  0  0  0  0  0  0  0  0  0
    5.0584   -3.8306   -2.5380 H   0  0  0  0  0  0  0  0  0  0  0  0
    6.3687   -2.7685   -1.9589 H   0  0  0  0  0  0  0  0  0  0  0  0
    5.5239   -5.2771   -0.9100 H   0  0  0  0  0  0  0  0  0  0  0  0
  1  2  1  0
  1 22  1  0
  1 23  1  0
  1 24  1  0
  2  7  1  0
  2  3  1  0
  2 25  1  6
  3 21  1  0
  3  4  1  0
  3 26  1  6
  4  5  2  0
  4 27  1  0
  5  6  1  0
  5 28  1  0
  6 16  1  0
  6  7  1  0
  6 29  1  1
  7  8  1  0
  7 30  1  1
  8  9  1  0
  8 31  1  0
  8 32  1  0
  9 13  1  0
  9 10  1  0
  9 14  1  0
 10 11  1  0
 11 12  1  0
 11 33  1  0
 11 34  1  0
 12 13  1  0
 12 35  1  0
 12 36  1  0
 14 15  1  0
 14 16  1  0
 14 37  1  6
 15 38  1  0
 15 39  1  0
 15 40  1  0
 16 21  1  0
 16 17  1  6
 17 18  1  0
 18 19  2  0
 18 20  1  0
 20 21  1  0
 20 41  1  0
 20 42  1  0
 21 43  1  6
M  END
>  <i_m_ct_stereo_status>  (40) 
1

>  <s_m_source_file>  (40) 
/var/tmp/pbs.5076255.sched01/tmpn440o9cr/0yczfkg0t.sdf

>  <i_m_source_file_index>  (40) 
18

>  <i_lp_mmshare_version>  (40) 
48012

>  <i_f3d_flags>  (40) 
0

>  <s_epik_input>  (40) 
W0NIM11bQ0BASF0xW0NASF0oW0NIXT1bQ0hdMilbQ0BIXShbQ0gyXUMoTzMpPU8pW0NAQF0zKFtDQEBIXTRbQ0gzXSlbQ0BIXTJbQ0BIXTFbQ0gyXUM0NU9bQ0gyXVtDSDJdTzU=

>  <s_epik_cmdline>  (40) 
J2VwaWtfcHl0aG9uJywgJy1waHQnLCAnMi4wJywgJy1waCcsICc3LjAnLCAnLXRuJywgJzgnLCAnLW1hJywgJzIwMCcsICctaW1hZScsICc8aW5maWxlLm1hZT4nLCAnLW9tYWUnLCAnPG91dGZpbGUubWFlPic=

>  <r_lp_tautomer_probability>  (40) 
1

>  <r_epik_Ionization_Penalty>  (40) 
1.61027e-13

>  <r_epik_Ionization_Penalty_Charging>  (40) 
0

>  <r_epik_Ionization_Penalty_Neutral>  (40) 
1.61027e-13

>  <r_epik_State_Penalty>  (40) 
-0

>  <r_epik_Charging_Adjusted_Penalty>  (40) 
0

>  <i_epik_Tot_Q>  (40) 
0

>  <i_epik_Tot_abs_Q>  (40) 
0

>  <s_epik_Chemistry_Notes>  (40) 
This compound has an ester and may undergo hydrolysis at high or low pH.

>  <s_lp_Force_Field>  (40) 
OPLS3e

>  <r_lp_Energy>  (40) 
37.1778

>  <b_lp_Chiralities_Consistent>  (40) 
1

>  <s_lp_Variant>  (40) 
15:0-1

>  <s_i_glide_gridfile>  (40) 
pfpi4k_grid

>  <i_i_glide_lignum>  (40) 
18

>  <i_i_glide_rotatable_bonds>  (40) 
0

>  <r_i_docking_score>  (40) 
-3.05697

>  <r_i_glide_ligand_efficiency>  (40) 
-0.14557

>  <r_i_glide_ligand_efficiency_sa>  (40) 
-0.401616

>  <r_i_glide_ligand_efficiency_ln>  (40) 
-0.755829

>  <r_i_glide_gscore>  (40) 
-3.05697

>  <r_i_glide_lipo>  (40) 
-0.660216

>  <r_i_glide_hbond>  (40) 
0

>  <r_i_glide_metal>  (40) 
-0

>  <r_i_glide_rewards>  (40) 
-1.51151

>  <r_i_glide_evdw>  (40) 
-17.9105

>  <r_i_glide_ecoul>  (40) 
0.209959

>  <r_i_glide_erotb>  (40) 
0

>  <r_i_glide_esite>  (40) 
-0.0212088

>  <r_i_glide_emodel>  (40) 
-22.0583

>  <r_i_glide_energy>  (40) 
-17.7005

>  <r_i_glide_einternal>  (40) 
0

>  <r_i_glide_intrahb_reward>  (40) 
-0

>  <i_i_glide_confnum>  (40) 
3

>  <i_i_glide_posenum>  (40) 
2

>  <r_i_glide_eff_state_penalty>  (40) 
0

>  <ligand_id>  (40) 
15

>  <original_smiles>  (40) 
CC1C2C=CC3C1CC1(OCCO1)C(C)C31OC(=O)CC21

>  <smiles>  (40) 
[H]C1=C([H])C2([H])C3([H])C([H])([H])C4(OC([H])([H])C([H])([H])O4)C([H])(C([H])([H])[H])C24OC(=O)C([H])([H])C4([H])C1([H])C3([H])C([H])([H])[H]

$$$$
16:0:0
     RDKit          3D

 51 55  0  0  1  0  0  0  0  0999 V2000
    0.7486   -7.5886    5.6002 O   0  0  0  0  0  0  0  0  0  0  0  0
    0.2498   -6.8253    4.5204 C   0  0  2  0  0  0  0  0  0  0  0  0
   -1.2371   -7.1261    4.3020 C   0  0  0  0  0  0  0  0  0  0  0  0
   -1.3931   -7.0766    2.8943 O   0  0  0  0  0  0  0  0  0  0  0  0
   -0.2765   -7.6969    2.3570 C   0  0  1  0  0  0  0  0  0  0  0  0
   -0.1393   -7.4523    0.9764 O   0  0  0  0  0  0  0  0  0  0  0  0
    0.9163   -7.1871    3.1808 C   0  0  1  0  0  0  0  0  0  0  0  0
    1.6053   -5.9864    2.5499 C   0  0  0  0  0  0  0  0  0  0  0  0
    2.8129   -5.9938    1.9761 C   0  0  0  0  0  0  0  0  0  0  0  0
    3.4340   -4.7465    1.3760 C   0  0  2  0  0  0  0  0  0  0  0  0
    3.0822   -4.5207   -0.0995 C   0  0  1  0  0  0  0  0  0  0  0  0
    2.2772   -3.4772   -0.8368 C   0  0  0  0  0  0  0  0  0  0  0  0
    3.1836   -3.2199   -2.0887 C   0  0  1  0  0  0  0  0  0  0  0  0
    3.3391   -1.7375   -2.4992 C   0  0  0  0  0  0  0  0  0  0  0  0
    4.7637   -1.3324   -2.1147 C   0  0  0  0  0  0  0  0  0  0  0  0
    5.5701   -2.6292   -2.2286 C   0  0  0  0  0  0  0  0  0  0  0  0
    4.6177   -3.7413   -1.7274 C   0  0  1  0  0  0  0  0  0  0  0  0
    4.4568   -3.9046   -0.2145 C   0  0  2  0  0  0  0  0  0  0  0  0
    4.8956   -4.9364    0.8372 C   0  0  1  0  0  0  0  0  0  0  0  0
    6.0322   -4.6201    1.8184 C   0  0  0  0  0  0  0  0  0  0  0  0
    7.1717   -3.9532    1.1961 N   0  0  0  0  0  0  0  0  0  0  0  0
    8.3917   -4.4179    0.9317 C   0  0  0  0  0  0  0  0  0  0  0  0
    9.1084   -3.4824    0.2976 N   0  0  0  0  0  0  0  0  0  0  0  0
    8.2818   -2.3749    0.2828 N   0  0  0  0  0  0  0  0  0  0  0  0
    7.1295   -2.6510    0.8538 N   0  0  0  0  0  0  0  0  0  0  0  0
    0.6294   -8.5114    5.4196 H   0  0  0  0  0  0  0  0  0  0  0  0
    0.3748   -5.7636    4.7491 H   0  0  0  0  0  0  0  0  0  0  0  0
   -1.5111   -8.1224    4.6583 H   0  0  0  0  0  0  0  0  0  0  0  0
   -1.8870   -6.4033    4.7864 H   0  0  0  0  0  0  0  0  0  0  0  0
   -0.3843   -8.7763    2.4805 H   0  0  0  0  0  0  0  0  0  0  0  0
   -0.1997   -8.3048    0.5321 H   0  0  0  0  0  0  0  0  0  0  0  0
    1.6317   -8.0056    3.2777 H   0  0  0  0  0  0  0  0  0  0  0  0
    1.0667   -5.0500    2.5553 H   0  0  0  0  0  0  0  0  0  0  0  0
    3.3835   -6.9115    1.9099 H   0  0  0  0  0  0  0  0  0  0  0  0
    3.2953   -3.8534    2.0018 H   0  0  0  0  0  0  0  0  0  0  0  0
    3.0448   -5.4888   -0.6062 H   0  0  0  0  0  0  0  0  0  0  0  0
    1.2750   -3.7936   -1.1430 H   0  0  0  0  0  0  0  0  0  0  0  0
    2.1953   -2.5837   -0.2074 H   0  0  0  0  0  0  0  0  0  0  0  0
    2.7974   -3.7921   -2.9344 H   0  0  0  0  0  0  0  0  0  0  0  0
    3.2237   -1.6516   -3.5811 H   0  0  0  0  0  0  0  0  0  0  0  0
    2.6130   -1.0662   -2.0415 H   0  0  0  0  0  0  0  0  0  0  0  0
    5.1441   -0.5244   -2.7353 H   0  0  0  0  0  0  0  0  0  0  0  0
    4.7730   -0.9661   -1.0880 H   0  0  0  0  0  0  0  0  0  0  0  0
    5.7759   -2.8162   -3.2882 H   0  0  0  0  0  0  0  0  0  0  0  0
    6.5355   -2.5848   -1.7250 H   0  0  0  0  0  0  0  0  0  0  0  0
    4.8559   -4.6918   -2.2208 H   0  0  0  0  0  0  0  0  0  0  0  0
    4.4510   -2.9239    0.2694 H   0  0  0  0  0  0  0  0  0  0  0  0
    5.0260   -5.9079    0.3408 H   0  0  0  0  0  0  0  0  0  0  0  0
    5.6823   -3.9640    2.6158 H   0  0  0  0  0  0  0  0  0  0  0  0
    6.3756   -5.5314    2.3010 H   0  0  0  0  0  0  0  0  0  0  0  0
    8.7699   -5.3729    1.2273 H   0  0  0  0  0  0  0  0  0  0  0  0
  1  2  1  0
  1 26  1  0
  2  7  1  0
  2  3  1  0
  2 27  1  1
  3  4  1  0
  3 28  1  0
  3 29  1  0
  4  5  1  0
  5  6  1  0
  5  7  1  0
  5 30  1  6
  6 31  1  0
  7  8  1  0
  7 32  1  1
  8  9  2  3
  8 33  1  0
  9 10  1  0
  9 34  1  0
 10 19  1  0
 10 11  1  0
 10 35  1  1
 11 18  1  0
 11 12  1  0
 11 36  1  6
 12 13  1  0
 12 37  1  0
 12 38  1  0
 13 17  1  0
 13 14  1  0
 13 39  1  6
 14 15  1  0
 14 40  1  0
 14 41  1  0
 15 16  1  0
 15 42  1  0
 15 43  1  0
 16 17  1  0
 16 44  1  0
 16 45  1  0
 17 18  1  0
 17 46  1  6
 18 19  1  0
 18 47  1  1
 19 20  1  0
 19 48  1  6
 20 21  1  0
 20 49  1  0
 20 50  1  0
 21 25  1  0
 21 22  1  0
 22 23  2  0
 22 51  1  0
 23 24  1  0
 24 25  2  0
M  END
>  <i_m_ct_stereo_status>  (41) 
1

>  <s_m_source_file>  (41) 
/var/tmp/pbs.5076255.sched01/tmpn440o9cr/0yczfkg0t.sdf

>  <i_m_source_file_index>  (41) 
19

>  <i_lp_mmshare_version>  (41) 
48012

>  <i_f3d_flags>  (41) 
0

>  <s_epik_input>  (41) 
W09IXVtDQEBIXTFbQ0gyXU9bQ0BASF0oW09IXSlbQ0BIXTEvW0NIXT1bQ0hdL1tDQEhdMltDQEhdKFtDSDJdbjNbY0hdbm5uMylbQ0BIXShbQ0BASF0yNClbQ0BIXTVbQ0BASF0oW0NIMl00KVtDSDJdW0NIMl1bQ0gyXTU=

>  <s_epik_cmdline>  (41) 
J2VwaWtfcHl0aG9uJywgJy1waHQnLCAnMi4wJywgJy1waCcsICc3LjAnLCAnLXRuJywgJzgnLCAnLW1hJywgJzIwMCcsICctaW1hZScsICc8aW5maWxlLm1hZT4nLCAnLW9tYWUnLCAnPG91dGZpbGUubWFlPic=

>  <r_lp_tautomer_probability>  (41) 
1

>  <r_epik_Ionization_Penalty>  (41) 
2.16571e-07

>  <r_epik_Ionization_Penalty_Charging>  (41) 
0

>  <r_epik_Ionization_Penalty_Neutral>  (41) 
2.16571e-07

>  <r_epik_State_Penalty>  (41) 
-0

>  <r_epik_Charging_Adjusted_Penalty>  (41) 
0

>  <i_epik_Tot_Q>  (41) 
0

>  <i_epik_Tot_abs_Q>  (41) 
0

>  <s_epik_Chemistry_Notes>  (41) 
This compound contains an acetal/aminal-like group ( X-CH(R)-Y where X, Y are N, S, or O) that may be acid/base labile, releasing an aldehyde.

>  <s_lp_Force_Field>  (41) 
OPLS3e

>  <r_lp_Energy>  (41) 
37.8161

>  <b_lp_Chiralities_Consistent>  (41) 
1

>  <s_lp_Variant>  (41) 
16:0-1

>  <s_i_glide_gridfile>  (41) 
pfpi4k_grid

>  <i_i_glide_lignum>  (41) 
19

>  <i_i_glide_rotatable_bonds>  (41) 
6

>  <r_i_docking_score>  (41) 
-3.7506

>  <r_i_glide_ligand_efficiency>  (41) 
-0.150024

>  <r_i_glide_ligand_efficiency_sa>  (41) 
-0.438673

>  <r_i_glide_ligand_efficiency_ln>  (41) 
-0.889005

>  <r_i_glide_gscore>  (41) 
-3.7506

>  <r_i_glide_lipo>  (41) 
-0.182639

>  <r_i_glide_hbond>  (41) 
-0.16

>  <r_i_glide_metal>  (41) 
-0

>  <r_i_glide_rewards>  (41) 
-1.25343

>  <r_i_glide_evdw>  (41) 
-24.6551

>  <r_i_glide_ecoul>  (41) 
-9.93436

>  <r_i_glide_erotb>  (41) 
0.633681

>  <r_i_glide_esite>  (41) 
-0.0653082

>  <r_i_glide_emodel>  (41) 
-39.8837

>  <r_i_glide_energy>  (41) 
-34.5895

>  <r_i_glide_einternal>  (41) 
5.11906

>  <r_i_glide_intrahb_reward>  (41) 
-0

>  <i_i_glide_confnum>  (41) 
5

>  <i_i_glide_posenum>  (41) 
21

>  <r_i_glide_eff_state_penalty>  (41) 
0

>  <ligand_id>  (41) 
16

>  <original_smiles>  (41) 
OC1COC(O)C1C=CC1C2CC3CCCC3C2C1Cn1cnnn1

>  <smiles>  (41) 
[H]OC1([H])OC([H])([H])C([H])(O[H])C1([H])C([H])=C([H])C1([H])C([H])(C([H])([H])n2nnnc2[H])C2([H])C1([H])C([H])([H])C1([H])C([H])([H])C([H])([H])C([H])([H])C12[H]

$$$$
16:0:1
     RDKit          3D

 51 55  0  0  1  0  0  0  0  0999 V2000
    3.8244   -3.7557   -3.6930 O   0  0  0  0  0  0  0  0  0  0  0  0
    4.0059   -3.1732   -2.4158 C   0  0  2  0  0  0  0  0  0  0  0  0
    4.8260   -1.8835   -2.5227 C   0  0  0  0  0  0  0  0  0  0  0  0
    5.7307   -1.9184   -1.4258 O   0  0  0  0  0  0  0  0  0  0  0  0
    6.1188   -3.2410   -1.2848 C   0  0  1  0  0  0  0  0  0  0  0  0
    6.7153   -3.5040   -0.0331 O   0  0  0  0  0  0  0  0  0  0  0  0
    4.8488   -4.0848   -1.5205 C   0  0  1  0  0  0  0  0  0  0  0  0
    4.1202   -4.4495   -0.2364 C   0  0  0  0  0  0  0  0  0  0  0  0
    3.9961   -5.7011    0.2441 C   0  0  0  0  0  0  0  0  0  0  0  0
    3.3650   -6.0717    1.5752 C   0  0  2  0  0  0  0  0  0  0  0  0
    2.2121   -7.0673    1.4875 C   0  0  1  0  0  0  0  0  0  0  0  0
    2.0296   -8.5023    1.9078 C   0  0  0  0  0  0  0  0  0  0  0  0
    0.5646   -8.4435    2.4591 C   0  0  1  0  0  0  0  0  0  0  0  0
    0.3236   -9.2335    3.7582 C   0  0  0  0  0  0  0  0  0  0  0  0
    0.1541   -8.1886    4.8671 C   0  0  0  0  0  0  0  0  0  0  0  0
   -0.3972   -6.9448    4.1671 C   0  0  0  0  0  0  0  0  0  0  0  0
    0.2505   -6.9421    2.7742 C   0  0  1  0  0  0  0  0  0  0  0  0
    1.6482   -6.3490    2.6904 C   0  0  2  0  0  0  0  0  0  0  0  0
    2.2877   -5.0757    2.1170 C   0  0  1  0  0  0  0  0  0  0  0  0
    2.7751   -3.9640    3.0512 C   0  0  0  0  0  0  0  0  0  0  0  0
    1.7543   -3.4885    3.9501 N   0  0  0  0  0  0  0  0  0  0  0  0
    1.3579   -3.9408    5.1444 C   0  0  0  0  0  0  0  0  0  0  0  0
    0.3655   -3.2164    5.6278 N   0  0  0  0  0  0  0  0  0  0  0  0
    0.1713   -2.2449    4.6693 N   0  0  0  0  0  0  0  0  0  0  0  0
    0.9975   -2.4052    3.6712 N   0  0  0  0  0  0  0  0  0  0  0  0
    3.3723   -4.5775   -3.5353 H   0  0  0  0  0  0  0  0  0  0  0  0
    3.0364   -2.9620   -1.9592 H   0  0  0  0  0  0  0  0  0  0  0  0
    5.4113   -1.8881   -3.4424 H   0  0  0  0  0  0  0  0  0  0  0  0
    4.2016   -0.9866   -2.5186 H   0  0  0  0  0  0  0  0  0  0  0  0
    6.8703   -3.4416   -2.0490 H   0  0  0  0  0  0  0  0  0  0  0  0
    7.5289   -3.0323    0.0197 H   0  0  0  0  0  0  0  0  0  0  0  0
    5.1435   -4.9973   -2.0371 H   0  0  0  0  0  0  0  0  0  0  0  0
    3.7165   -3.6098    0.3077 H   0  0  0  0  0  0  0  0  0  0  0  0
    4.3949   -6.5228   -0.3309 H   0  0  0  0  0  0  0  0  0  0  0  0
    4.1163   -6.3572    2.3190 H   0  0  0  0  0  0  0  0  0  0  0  0
    1.6072   -6.8430    0.6050 H   0  0  0  0  0  0  0  0  0  0  0  0
    2.1514   -9.2140    1.0904 H   0  0  0  0  0  0  0  0  0  0  0  0
    2.7497   -8.7612    2.6864 H   0  0  0  0  0  0  0  0  0  0  0  0
   -0.1214   -8.7902    1.6873 H   0  0  0  0  0  0  0  0  0  0  0  0
   -0.5979   -9.8087    3.6647 H   0  0  0  0  0  0  0  0  0  0  0  0
    1.1180   -9.9477    3.9838 H   0  0  0  0  0  0  0  0  0  0  0  0
   -0.4936   -8.5435    5.6710 H   0  0  0  0  0  0  0  0  0  0  0  0
    1.1262   -7.9627    5.3048 H   0  0  0  0  0  0  0  0  0  0  0  0
   -1.4751   -7.0582    4.0568 H   0  0  0  0  0  0  0  0  0  0  0  0
   -0.2317   -6.0316    4.7342 H   0  0  0  0  0  0  0  0  0  0  0  0
   -0.4089   -6.5050    2.0228 H   0  0  0  0  0  0  0  0  0  0  0  0
    2.2094   -6.6009    3.5890 H   0  0  0  0  0  0  0  0  0  0  0  0
    1.6609   -4.6932    1.3132 H   0  0  0  0  0  0  0  0  0  0  0  0
    3.5962   -4.3384    3.6600 H   0  0  0  0  0  0  0  0  0  0  0  0
    3.1729   -3.1223    2.4840 H   0  0  0  0  0  0  0  0  0  0  0  0
    1.7637   -4.8122    5.6245 H   0  0  0  0  0  0  0  0  0  0  0  0
  1  2  1  0
  1 26  1  0
  2  7  1  0
  2  3  1  0
  2 27  1  1
  3  4  1  0
  3 28  1  0
  3 29  1  0
  4  5  1  0
  5  6  1  0
  5  7  1  0
  5 30  1  6
  6 31  1  0
  7  8  1  0
  7 32  1  6
  8  9  2  3
  8 33  1  0
  9 10  1  0
  9 34  1  0
 10 19  1  0
 10 11  1  0
 10 35  1  1
 11 18  1  0
 11 12  1  0
 11 36  1  6
 12 13  1  0
 12 37  1  0
 12 38  1  0
 13 17  1  0
 13 14  1  0
 13 39  1  6
 14 15  1  0
 14 40  1  0
 14 41  1  0
 15 16  1  0
 15 42  1  0
 15 43  1  0
 16 17  1  0
 16 44  1  0
 16 45  1  0
 17 18  1  0
 17 46  1  6
 18 19  1  0
 18 47  1  1
 19 20  1  0
 19 48  1  6
 20 21  1  0
 20 49  1  0
 20 50  1  0
 21 25  1  0
 21 22  1  0
 22 23  2  0
 22 51  1  0
 23 24  1  0
 24 25  2  0
M  END
>  <i_m_ct_stereo_status>  (42) 
1

>  <s_m_source_file>  (42) 
/var/tmp/pbs.5076255.sched01/tmpn440o9cr/0yczfkg0t.sdf

>  <i_m_source_file_index>  (42) 
19

>  <i_lp_mmshare_version>  (42) 
48012

>  <i_f3d_flags>  (42) 
0

>  <s_epik_input>  (42) 
W09IXVtDQEBIXTFbQ0gyXU9bQ0BASF0oW09IXSlbQ0BIXTEvW0NIXT1bQ0hdL1tDQEhdMltDQEhdKFtDSDJdbjNbY0hdbm5uMylbQ0BIXShbQ0BASF0yNClbQ0BIXTVbQ0BASF0oW0NIMl00KVtDSDJdW0NIMl1bQ0gyXTU=

>  <s_epik_cmdline>  (42) 
J2VwaWtfcHl0aG9uJywgJy1waHQnLCAnMi4wJywgJy1waCcsICc3LjAnLCAnLXRuJywgJzgnLCAnLW1hJywgJzIwMCcsICctaW1hZScsICc8aW5maWxlLm1hZT4nLCAnLW9tYWUnLCAnPG91dGZpbGUubWFlPic=

>  <r_lp_tautomer_probability>  (42) 
1

>  <r_epik_Ionization_Penalty>  (42) 
2.16571e-07

>  <r_epik_Ionization_Penalty_Charging>  (42) 
0

>  <r_epik_Ionization_Penalty_Neutral>  (42) 
2.16571e-07

>  <r_epik_State_Penalty>  (42) 
-0

>  <r_epik_Charging_Adjusted_Penalty>  (42) 
0

>  <i_epik_Tot_Q>  (42) 
0

>  <i_epik_Tot_abs_Q>  (42) 
0

>  <s_epik_Chemistry_Notes>  (42) 
This compound contains an acetal/aminal-like group ( X-CH(R)-Y where X, Y are N, S, or O) that may be acid/base labile, releasing an aldehyde.

>  <s_lp_Force_Field>  (42) 
OPLS3e

>  <r_lp_Energy>  (42) 
37.8161

>  <b_lp_Chiralities_Consistent>  (42) 
1

>  <s_lp_Variant>  (42) 
16:0-1

>  <s_i_glide_gridfile>  (42) 
pfpi4k_grid

>  <i_i_glide_lignum>  (42) 
19

>  <i_i_glide_rotatable_bonds>  (42) 
6

>  <r_i_docking_score>  (42) 
-2.52436

>  <r_i_glide_ligand_efficiency>  (42) 
-0.100974

>  <r_i_glide_ligand_efficiency_sa>  (42) 
-0.295251

>  <r_i_glide_ligand_efficiency_ln>  (42) 
-0.598349

>  <r_i_glide_gscore>  (42) 
-2.52436

>  <r_i_glide_lipo>  (42) 
-0.0700204

>  <r_i_glide_hbond>  (42) 
-0.0037401

>  <r_i_glide_metal>  (42) 
-0

>  <r_i_glide_rewards>  (42) 
-1.223

>  <r_i_glide_evdw>  (42) 
-23.4956

>  <r_i_glide_ecoul>  (42) 
-4.53215

>  <r_i_glide_erotb>  (42) 
0.633681

>  <r_i_glide_esite>  (42) 
-0.00667835

>  <r_i_glide_emodel>  (42) 
-33.0433

>  <r_i_glide_energy>  (42) 
-28.0277

>  <r_i_glide_einternal>  (42) 
1.46289

>  <r_i_glide_intrahb_reward>  (42) 
-0

>  <i_i_glide_confnum>  (42) 
4

>  <i_i_glide_posenum>  (42) 
1

>  <r_i_glide_eff_state_penalty>  (42) 
0

>  <ligand_id>  (42) 
16

>  <original_smiles>  (42) 
OC1COC(O)C1C=CC1C2CC3CCCC3C2C1Cn1cnnn1

>  <smiles>  (42) 
[H]OC1([H])OC([H])([H])C([H])(O[H])C1([H])C([H])=C([H])C1([H])C([H])(C([H])([H])n2nnnc2[H])C2([H])C1([H])C([H])([H])C1([H])C([H])([H])C([H])([H])C([H])([H])C12[H]

$$$$
16:0:2
     RDKit          3D

 51 55  0  0  1  0  0  0  0  0999 V2000
    3.8180   -3.8566   -3.9247 O   0  0  0  0  0  0  0  0  0  0  0  0
    3.8778   -3.1233   -2.7235 C   0  0  2  0  0  0  0  0  0  0  0  0
    4.4157   -1.7155   -2.9798 C   0  0  0  0  0  0  0  0  0  0  0  0
    5.2821   -1.4577   -1.8858 O   0  0  0  0  0  0  0  0  0  0  0  0
    5.9387   -2.6476   -1.6175 C   0  0  1  0  0  0  0  0  0  0  0  0
    6.5529   -2.6387   -0.3531 O   0  0  0  0  0  0  0  0  0  0  0  0
    4.8822   -3.7605   -1.7634 C   0  0  1  0  0  0  0  0  0  0  0  0
    4.2157   -4.1428   -0.4485 C   0  0  0  0  0  0  0  0  0  0  0  0
    4.1881   -5.3858    0.0652 C   0  0  0  0  0  0  0  0  0  0  0  0
    3.6200   -5.7669    1.4187 C   0  0  2  0  0  0  0  0  0  0  0  0
    2.4838   -6.7834    1.3829 C   0  0  1  0  0  0  0  0  0  0  0  0
    2.3471   -8.2226    1.8109 C   0  0  0  0  0  0  0  0  0  0  0  0
    0.9068   -8.1900    2.4270 C   0  0  1  0  0  0  0  0  0  0  0  0
    0.7409   -8.9819    3.7366 C   0  0  0  0  0  0  0  0  0  0  0  0
    0.6072   -7.9391    4.8534 C   0  0  0  0  0  0  0  0  0  0  0  0
    0.0059   -6.7001    4.1830 C   0  0  0  0  0  0  0  0  0  0  0  0
    0.5817   -6.6933    2.7592 C   0  0  1  0  0  0  0  0  0  0  0  0
    1.9609   -6.0741    2.6096 C   0  0  2  0  0  0  0  0  0  0  0  0
    2.5450   -4.7879    2.0042 C   0  0  1  0  0  0  0  0  0  0  0  0
    3.0562   -3.6712    2.9204 C   0  0  0  0  0  0  0  0  0  0  0  0
    2.0443   -3.1637    3.8099 N   0  0  0  0  0  0  0  0  0  0  0  0
    1.8085   -3.4128    5.0968 C   0  0  0  0  0  0  0  0  0  0  0  0
    0.7715   -2.7242    5.5424 N   0  0  0  0  0  0  0  0  0  0  0  0
    0.3684   -1.9972    4.4410 N   0  0  0  0  0  0  0  0  0  0  0  0
    1.1211   -2.2568    3.4083 N   0  0  0  0  0  0  0  0  0  0  0  0
    3.4676   -4.7069   -3.6984 H   0  0  0  0  0  0  0  0  0  0  0  0
    2.8803   -3.0752   -2.2843 H   0  0  0  0  0  0  0  0  0  0  0  0
    5.0098   -1.6778   -3.8949 H   0  0  0  0  0  0  0  0  0  0  0  0
    3.6228   -0.9724   -3.0564 H   0  0  0  0  0  0  0  0  0  0  0  0
    6.7346   -2.7592   -2.3538 H   0  0  0  0  0  0  0  0  0  0  0  0
    5.8654   -2.7197    0.2918 H   0  0  0  0  0  0  0  0  0  0  0  0
    5.3799   -4.6299   -2.1971 H   0  0  0  0  0  0  0  0  0  0  0  0
    3.7626   -3.3200    0.0837 H   0  0  0  0  0  0  0  0  0  0  0  0
    4.6120   -6.1966   -0.5086 H   0  0  0  0  0  0  0  0  0  0  0  0
    4.4082   -6.0353    2.1329 H   0  0  0  0  0  0  0  0  0  0  0  0
    1.8385   -6.5706    0.5244 H   0  0  0  0  0  0  0  0  0  0  0  0
    2.4413   -8.9339    0.9896 H   0  0  0  0  0  0  0  0  0  0  0  0
    3.1071   -8.4670    2.5555 H   0  0  0  0  0  0  0  0  0  0  0  0
    0.1964   -8.5567    1.6873 H   0  0  0  0  0  0  0  0  0  0  0  0
   -0.1744   -9.5742    3.6868 H   0  0  0  0  0  0  0  0  0  0  0  0
    1.5586   -9.6828    3.9240 H   0  0  0  0  0  0  0  0  0  0  0  0
    0.0035   -8.3055    5.6871 H   0  0  0  0  0  0  0  0  0  0  0  0
    1.5952   -7.6990    5.2461 H   0  0  0  0  0  0  0  0  0  0  0  0
   -1.0704   -6.8317    4.1262 H   0  0  0  0  0  0  0  0  0  0  0  0
    0.1953   -5.7789    4.7375 H   0  0  0  0  0  0  0  0  0  0  0  0
   -0.1227   -6.2614    2.0439 H   0  0  0  0  0  0  0  0  0  0  0  0
    2.5683   -6.3103    3.4803 H   0  0  0  0  0  0  0  0  0  0  0  0
    1.8578   -4.4164    1.2384 H   0  0  0  0  0  0  0  0  0  0  0  0
    3.8747   -4.0490    3.5280 H   0  0  0  0  0  0  0  0  0  0  0  0
    3.4648   -2.8434    2.3363 H   0  0  0  0  0  0  0  0  0  0  0  0
    2.3764   -4.1062    5.6973 H   0  0  0  0  0  0  0  0  0  0  0  0
  1  2  1  0
  1 26  1  0
  2  7  1  0
  2  3  1  0
  2 27  1  1
  3  4  1  0
  3 28  1  0
  3 29  1  0
  4  5  1  0
  5  6  1  0
  5  7  1  0
  5 30  1  6
  6 31  1  0
  7  8  1  0
  7 32  1  6
  8  9  2  3
  8 33  1  0
  9 10  1  0
  9 34  1  0
 10 19  1  0
 10 11  1  0
 10 35  1  1
 11 18  1  0
 11 12  1  0
 11 36  1  6
 12 13  1  0
 12 37  1  0
 12 38  1  0
 13 17  1  0
 13 14  1  0
 13 39  1  6
 14 15  1  0
 14 40  1  0
 14 41  1  0
 15 16  1  0
 15 42  1  0
 15 43  1  0
 16 17  1  0
 16 44  1  0
 16 45  1  0
 17 18  1  0
 17 46  1  6
 18 19  1  0
 18 47  1  1
 19 20  1  0
 19 48  1  6
 20 21  1  0
 20 49  1  0
 20 50  1  0
 21 25  1  0
 21 22  1  0
 22 23  2  0
 22 51  1  0
 23 24  1  0
 24 25  2  0
M  END
>  <i_m_ct_stereo_status>  (43) 
1

>  <s_m_source_file>  (43) 
/var/tmp/pbs.5076255.sched01/tmpn440o9cr/0yczfkg0t.sdf

>  <i_m_source_file_index>  (43) 
19

>  <i_lp_mmshare_version>  (43) 
48012

>  <i_f3d_flags>  (43) 
0

>  <s_epik_input>  (43) 
W09IXVtDQEBIXTFbQ0gyXU9bQ0BASF0oW09IXSlbQ0BIXTEvW0NIXT1bQ0hdL1tDQEhdMltDQEhdKFtDSDJdbjNbY0hdbm5uMylbQ0BIXShbQ0BASF0yNClbQ0BIXTVbQ0BASF0oW0NIMl00KVtDSDJdW0NIMl1bQ0gyXTU=

>  <s_epik_cmdline>  (43) 
J2VwaWtfcHl0aG9uJywgJy1waHQnLCAnMi4wJywgJy1waCcsICc3LjAnLCAnLXRuJywgJzgnLCAnLW1hJywgJzIwMCcsICctaW1hZScsICc8aW5maWxlLm1hZT4nLCAnLW9tYWUnLCAnPG91dGZpbGUubWFlPic=

>  <r_lp_tautomer_probability>  (43) 
1

>  <r_epik_Ionization_Penalty>  (43) 
2.16571e-07

>  <r_epik_Ionization_Penalty_Charging>  (43) 
0

>  <r_epik_Ionization_Penalty_Neutral>  (43) 
2.16571e-07

>  <r_epik_State_Penalty>  (43) 
-0

>  <r_epik_Charging_Adjusted_Penalty>  (43) 
0

>  <i_epik_Tot_Q>  (43) 
0

>  <i_epik_Tot_abs_Q>  (43) 
0

>  <s_epik_Chemistry_Notes>  (43) 
This compound contains an acetal/aminal-like group ( X-CH(R)-Y where X, Y are N, S, or O) that may be acid/base labile, releasing an aldehyde.

>  <s_lp_Force_Field>  (43) 
OPLS3e

>  <r_lp_Energy>  (43) 
37.8161

>  <b_lp_Chiralities_Consistent>  (43) 
1

>  <s_lp_Variant>  (43) 
16:0-1

>  <s_i_glide_gridfile>  (43) 
pfpi4k_grid

>  <i_i_glide_lignum>  (43) 
19

>  <i_i_glide_rotatable_bonds>  (43) 
6

>  <r_i_docking_score>  (43) 
-2.44473

>  <r_i_glide_ligand_efficiency>  (43) 
-0.0977892

>  <r_i_glide_ligand_efficiency_sa>  (43) 
-0.285937

>  <r_i_glide_ligand_efficiency_ln>  (43) 
-0.579474

>  <r_i_glide_gscore>  (43) 
-2.44473

>  <r_i_glide_lipo>  (43) 
-0.0595987

>  <r_i_glide_hbond>  (43) 
0

>  <r_i_glide_metal>  (43) 
-0

>  <r_i_glide_rewards>  (43) 
-1.05654

>  <r_i_glide_evdw>  (43) 
-24.4312

>  <r_i_glide_ecoul>  (43) 
-4.817

>  <r_i_glide_erotb>  (43) 
0.633681

>  <r_i_glide_esite>  (43) 
-0.0181591

>  <r_i_glide_emodel>  (43) 
-34.4361

>  <r_i_glide_energy>  (43) 
-29.2482

>  <r_i_glide_einternal>  (43) 
0.81971

>  <r_i_glide_intrahb_reward>  (43) 
-0

>  <i_i_glide_confnum>  (43) 
4

>  <i_i_glide_posenum>  (43) 
22

>  <r_i_glide_eff_state_penalty>  (43) 
0

>  <ligand_id>  (43) 
16

>  <original_smiles>  (43) 
OC1COC(O)C1C=CC1C2CC3CCCC3C2C1Cn1cnnn1

>  <smiles>  (43) 
[H]OC1([H])OC([H])([H])C([H])(O[H])C1([H])C([H])=C([H])C1([H])C([H])(C([H])([H])n2nnnc2[H])C2([H])C1([H])C([H])([H])C1([H])C([H])([H])C([H])([H])C([H])([H])C12[H]

$$$$
16:1:0
     RDKit          3D

 51 55  0  0  1  0  0  0  0  0999 V2000
    3.6620   -1.0977   -1.1440 O   0  0  0  0  0  0  0  0  0  0  0  0
    4.4198   -1.3493   -2.2830 C   0  0  2  0  0  0  0  0  0  0  0  0
    3.5514   -1.0243   -3.5009 C   0  0  0  0  0  0  0  0  0  0  0  0
    3.8131   -2.0700   -4.4266 O   0  0  0  0  0  0  0  0  0  0  0  0
    3.9323   -3.2260   -3.6742 C   0  0  1  0  0  0  0  0  0  0  0  0
    4.5378   -4.2991   -4.3648 O   0  0  0  0  0  0  0  0  0  0  0  0
    4.7177   -2.8519   -2.4055 C   0  0  1  0  0  0  0  0  0  0  0  0
    6.2242   -3.0799   -2.4719 C   0  0  0  0  0  0  0  0  0  0  0  0
    7.0942   -3.3212   -1.4633 C   0  0  0  0  0  0  0  0  0  0  0  0
    6.8950   -3.3854    0.0608 C   0  0  2  0  0  0  0  0  0  0  0  0
    6.1511   -4.6204    0.5672 C   0  0  1  0  0  0  0  0  0  0  0  0
    6.5242   -5.8478    1.3412 C   0  0  0  0  0  0  0  0  0  0  0  0
    5.2567   -5.9976    2.2557 C   0  0  1  0  0  0  0  0  0  0  0  0
    5.5508   -6.3608    3.7213 C   0  0  0  0  0  0  0  0  0  0  0  0
    5.2933   -5.0915    4.5443 C   0  0  0  0  0  0  0  0  0  0  0  0
    4.2389   -4.3074    3.7571 C   0  0  0  0  0  0  0  0  0  0  0  0
    4.5577   -4.5949    2.2858 C   0  0  1  0  0  0  0  0  0  0  0  0
    5.6509   -3.7401    1.6947 C   0  0  2  0  0  0  0  0  0  0  0  0
    5.6631   -2.5917    0.6832 C   0  0  1  0  0  0  0  0  0  0  0  0
    5.9141   -1.1431    1.1542 C   0  0  0  0  0  0  0  0  0  0  0  0
    4.8013   -0.6167    1.9701 N   0  0  0  0  0  0  0  0  0  0  0  0
    3.5678   -0.1243    1.6828 C   0  0  0  0  0  0  0  0  0  0  0  0
    2.9084    0.1636    2.8237 N   0  0  0  0  0  0  0  0  0  0  0  0
    3.8466   -0.1379    3.8189 N   0  0  0  0  0  0  0  0  0  0  0  0
    4.9372   -0.5921    3.3251 N   0  0  0  0  0  0  0  0  0  0  0  0
    2.7960   -1.3628   -1.3545 H   0  0  0  0  0  0  0  0  0  0  0  0
    5.3348   -0.7711   -2.3287 H   0  0  0  0  0  0  0  0  0  0  0  0
    2.4978   -1.0769   -3.2251 H   0  0  0  0  0  0  0  0  0  0  0  0
    3.7407   -0.0245   -3.8939 H   0  0  0  0  0  0  0  0  0  0  0  0
    2.9384   -3.5688   -3.3756 H   0  0  0  0  0  0  0  0  0  0  0  0
    4.5095   -5.0451   -3.7785 H   0  0  0  0  0  0  0  0  0  0  0  0
    4.2839   -3.4698   -1.6218 H   0  0  0  0  0  0  0  0  0  0  0  0
    6.6387   -3.0473   -3.4718 H   0  0  0  0  0  0  0  0  0  0  0  0
    8.1268   -3.4784   -1.7551 H   0  0  0  0  0  0  0  0  0  0  0  0
    7.8493   -3.2061    0.5994 H   0  0  0  0  0  0  0  0  0  0  0  0
    5.3305   -4.8551   -0.1388 H   0  0  0  0  0  0  0  0  0  0  0  0
    6.7034   -6.7267    0.7199 H   0  0  0  0  0  0  0  0  0  0  0  0
    7.4338   -5.6507    1.9257 H   0  0  0  0  0  0  0  0  0  0  0  0
    4.5773   -6.7325    1.8205 H   0  0  0  0  0  0  0  0  0  0  0  0
    4.8566   -7.1412    4.0388 H   0  0  0  0  0  0  0  0  0  0  0  0
    6.5604   -6.7503    3.8670 H   0  0  0  0  0  0  0  0  0  0  0  0
    4.9775   -5.3149    5.5650 H   0  0  0  0  0  0  0  0  0  0  0  0
    6.2115   -4.5059    4.6040 H   0  0  0  0  0  0  0  0  0  0  0  0
    3.2548   -4.7052    4.0006 H   0  0  0  0  0  0  0  0  0  0  0  0
    4.2284   -3.2408    3.9978 H   0  0  0  0  0  0  0  0  0  0  0  0
    3.6368   -4.5773    1.6765 H   0  0  0  0  0  0  0  0  0  0  0  0
    6.4428   -3.5575    2.4452 H   0  0  0  0  0  0  0  0  0  0  0  0
    4.6772   -2.7170    0.2082 H   0  0  0  0  0  0  0  0  0  0  0  0
    6.8617   -1.0575    1.7346 H   0  0  0  0  0  0  0  0  0  0  0  0
    6.0613   -0.5027    0.2925 H   0  0  0  0  0  0  0  0  0  0  0  0
    3.1031    0.0702    0.7124 H   0  0  0  0  0  0  0  0  0  0  0  0
  1  2  1  0
  1 26  1  0
  2  7  1  0
  2  3  1  0
  2 27  1  1
  3  4  1  0
  3 28  1  0
  3 29  1  0
  4  5  1  0
  5  6  1  0
  5  7  1  0
  5 30  1  1
  6 31  1  0
  7  8  1  0
  7 32  1  1
  8  9  2  3
  8 33  1  0
  9 10  1  0
  9 34  1  0
 10 19  1  0
 10 11  1  0
 10 35  1  1
 11 18  1  0
 11 12  1  0
 11 36  1  6
 12 13  1  0
 12 37  1  0
 12 38  1  0
 13 17  1  0
 13 14  1  0
 13 39  1  6
 14 15  1  0
 14 40  1  0
 14 41  1  0
 15 16  1  0
 15 42  1  0
 15 43  1  0
 16 17  1  0
 16 44  1  0
 16 45  1  0
 17 18  1  0
 17 46  1  6
 18 19  1  0
 18 47  1  1
 19 20  1  0
 19 48  1  6
 20 21  1  0
 20 49  1  0
 20 50  1  0
 21 25  1  0
 21 22  1  0
 22 23  2  0
 22 51  1  0
 23 24  1  0
 24 25  2  0
M  END
>  <i_m_ct_stereo_status>  (44) 
1

>  <s_m_source_file>  (44) 
/var/tmp/pbs.5076255.sched01/tmpn440o9cr/0yczfkg0t.sdf

>  <i_m_source_file_index>  (44) 
20

>  <i_lp_mmshare_version>  (44) 
48012

>  <i_f3d_flags>  (44) 
0

>  <s_epik_input>  (44) 
W09IXVtDQEBIXTFbQ0gyXU9bQ0BASF0oW09IXSlbQ0BIXTEvW0NIXT1bQ0hdL1tDQEhdMltDQEhdKFtDSDJdbjNbY0hdbm5uMylbQ0BIXShbQ0BASF0yNClbQ0BIXTVbQ0BASF0oW0NIMl00KVtDSDJdW0NIMl1bQ0gyXTU=

>  <s_epik_cmdline>  (44) 
J2VwaWtfcHl0aG9uJywgJy1waHQnLCAnMi4wJywgJy1waCcsICc3LjAnLCAnLXRuJywgJzgnLCAnLW1hJywgJzIwMCcsICctaW1hZScsICc8aW5maWxlLm1hZT4nLCAnLW9tYWUnLCAnPG91dGZpbGUubWFlPic=

>  <r_lp_tautomer_probability>  (44) 
1

>  <r_epik_Ionization_Penalty>  (44) 
2.16571e-07

>  <r_epik_Ionization_Penalty_Charging>  (44) 
0

>  <r_epik_Ionization_Penalty_Neutral>  (44) 
2.16571e-07

>  <r_epik_State_Penalty>  (44) 
-0

>  <r_epik_Charging_Adjusted_Penalty>  (44) 
0

>  <i_epik_Tot_Q>  (44) 
0

>  <i_epik_Tot_abs_Q>  (44) 
0

>  <s_epik_Chemistry_Notes>  (44) 
This compound contains an acetal/aminal-like group ( X-CH(R)-Y where X, Y are N, S, or O) that may be acid/base labile, releasing an aldehyde.

>  <s_lp_Force_Field>  (44) 
OPLS3e

>  <r_lp_Energy>  (44) 
40.5488

>  <b_lp_Chiralities_Consistent>  (44) 
1

>  <s_lp_Variant>  (44) 
16:0-2

>  <s_i_glide_gridfile>  (44) 
pfpi4k_grid

>  <i_i_glide_lignum>  (44) 
20

>  <i_i_glide_rotatable_bonds>  (44) 
6

>  <r_i_docking_score>  (44) 
-5.00334

>  <r_i_glide_ligand_efficiency>  (44) 
-0.200133

>  <r_i_glide_ligand_efficiency_sa>  (44) 
-0.585194

>  <r_i_glide_ligand_efficiency_ln>  (44) 
-1.18594

>  <r_i_glide_gscore>  (44) 
-5.00334

>  <r_i_glide_lipo>  (44) 
-1.19463

>  <r_i_glide_hbond>  (44) 
-0.303185

>  <r_i_glide_metal>  (44) 
-0

>  <r_i_glide_rewards>  (44) 
-1.48761

>  <r_i_glide_evdw>  (44) 
-24.5405

>  <r_i_glide_ecoul>  (44) 
-9.49714

>  <r_i_glide_erotb>  (44) 
0.633681

>  <r_i_glide_esite>  (44) 
0

>  <r_i_glide_emodel>  (44) 
-38.2167

>  <r_i_glide_energy>  (44) 
-34.0376

>  <r_i_glide_einternal>  (44) 
8.36789

>  <r_i_glide_intrahb_reward>  (44) 
-0

>  <i_i_glide_confnum>  (44) 
3

>  <i_i_glide_posenum>  (44) 
1

>  <r_i_glide_eff_state_penalty>  (44) 
0

>  <ligand_id>  (44) 
16

>  <original_smiles>  (44) 
OC1COC(O)C1C=CC1C2CC3CCCC3C2C1Cn1cnnn1

>  <smiles>  (44) 
[H]OC1([H])OC([H])([H])C([H])(O[H])C1([H])C([H])=C([H])C1([H])C([H])(C([H])([H])n2nnnc2[H])C2([H])C1([H])C([H])([H])C1([H])C([H])([H])C([H])([H])C([H])([H])C12[H]

$$$$
16:1:1
     RDKit          3D

 51 55  0  0  1  0  0  0  0  0999 V2000
    3.4164   -1.3926   -1.0222 O   0  0  0  0  0  0  0  0  0  0  0  0
    4.1538   -1.4873   -2.1779 C   0  0  2  0  0  0  0  0  0  0  0  0
    3.2856   -1.1631   -3.3748 C   0  0  0  0  0  0  0  0  0  0  0  0
    3.6787   -2.1319   -4.3399 O   0  0  0  0  0  0  0  0  0  0  0  0
    3.8632   -3.3134   -3.6452 C   0  0  1  0  0  0  0  0  0  0  0  0
    4.5935   -4.2863   -4.3570 O   0  0  0  0  0  0  0  0  0  0  0  0
    4.5843   -2.9331   -2.3615 C   0  0  1  0  0  0  0  0  0  0  0  0
    6.0974   -3.0260   -2.4132 C   0  0  0  0  0  0  0  0  0  0  0  0
    6.9575   -3.2337   -1.3964 C   0  0  0  0  0  0  0  0  0  0  0  0
    6.7098   -3.3739    0.1098 C   0  0  2  0  0  0  0  0  0  0  0  0
    6.2074   -4.7417    0.5790 C   0  0  1  0  0  0  0  0  0  0  0  0
    6.8048   -5.8813    1.3460 C   0  0  0  0  0  0  0  0  0  0  0  0
    5.5693   -6.2980    2.2186 C   0  0  1  0  0  0  0  0  0  0  0  0
    5.8849   -6.6380    3.6855 C   0  0  0  0  0  0  0  0  0  0  0  0
    5.3674   -5.4620    4.5239 C   0  0  0  0  0  0  0  0  0  0  0  0
    4.2020   -4.8859    3.7226 C   0  0  0  0  0  0  0  0  0  0  0  0
    4.6124   -5.0593    2.2554 C   0  0  1  0  0  0  0  0  0  0  0  0
    5.5322   -3.9892    1.7158 C   0  0  2  0  0  0  0  0  0  0  0  0
    5.3668   -2.8317    0.7358 C   0  0  1  0  0  0  0  0  0  0  0  0
    5.3368   -1.3806    1.2316 C   0  0  0  0  0  0  0  0  0  0  0  0
    4.1236   -1.0623    1.9800 N   0  0  0  0  0  0  0  0  0  0  0  0
    2.9512   -0.4837    1.6367 C   0  0  0  0  0  0  0  0  0  0  0  0
    2.0856   -0.5052    2.6363 N   0  0  0  0  0  0  0  0  0  0  0  0
    2.8155   -1.0873    3.6658 N   0  0  0  0  0  0  0  0  0  0  0  0
    4.0110   -1.3963    3.2808 N   0  0  0  0  0  0  0  0  0  0  0  0
    2.4830   -1.3217   -1.2313 H   0  0  0  0  0  0  0  0  0  0  0  0
    4.9969   -0.8039   -2.1189 H   0  0  0  0  0  0  0  0  0  0  0  0
    2.2331   -1.3313   -3.1173 H   0  0  0  0  0  0  0  0  0  0  0  0
    3.3798   -0.1312   -3.7089 H   0  0  0  0  0  0  0  0  0  0  0  0
    2.8885   -3.7509   -3.4087 H   0  0  0  0  0  0  0  0  0  0  0  0
    4.6988   -5.0273   -3.7729 H   0  0  0  0  0  0  0  0  0  0  0  0
    4.2008   -3.6346   -1.6250 H   0  0  0  0  0  0  0  0  0  0  0  0
    6.5240   -2.9229   -3.4009 H   0  0  0  0  0  0  0  0  0  0  0  0
    8.0046   -3.2972   -1.6683 H   0  0  0  0  0  0  0  0  0  0  0  0
    7.5887   -3.0342    0.6714 H   0  0  0  0  0  0  0  0  0  0  0  0
    5.4818   -5.1232   -0.1563 H   0  0  0  0  0  0  0  0  0  0  0  0
    7.1658   -6.6952    0.7135 H   0  0  0  0  0  0  0  0  0  0  0  0
    7.6385   -5.5329    1.9648 H   0  0  0  0  0  0  0  0  0  0  0  0
    5.0570   -7.1385    1.7463 H   0  0  0  0  0  0  0  0  0  0  0  0
    5.3440   -7.5433    3.9680 H   0  0  0  0  0  0  0  0  0  0  0  0
    6.9439   -6.8280    3.8599 H   0  0  0  0  0  0  0  0  0  0  0  0
    5.0727   -5.7618    5.5300 H   0  0  0  0  0  0  0  0  0  0  0  0
    6.1515   -4.7073    4.6224 H   0  0  0  0  0  0  0  0  0  0  0  0
    3.2993   -5.4671    3.9212 H   0  0  0  0  0  0  0  0  0  0  0  0
    3.9826   -3.8570    3.9908 H   0  0  0  0  0  0  0  0  0  0  0  0
    3.7338   -5.2013    1.6156 H   0  0  0  0  0  0  0  0  0  0  0  0
    6.2480   -3.6758    2.4888 H   0  0  0  0  0  0  0  0  0  0  0  0
    4.4396   -3.1058    0.2249 H   0  0  0  0  0  0  0  0  0  0  0  0
    6.2042   -1.1774    1.8729 H   0  0  0  0  0  0  0  0  0  0  0  0
    5.4354   -0.6949    0.3979 H   0  0  0  0  0  0  0  0  0  0  0  0
    2.7030   -0.0583    0.6705 H   0  0  0  0  0  0  0  0  0  0  0  0
  1  2  1  0
  1 26  1  0
  2  7  1  0
  2  3  1  0
  2 27  1  1
  3  4  1  0
  3 28  1  0
  3 29  1  0
  4  5  1  0
  5  6  1  0
  5  7  1  0
  5 30  1  1
  6 31  1  0
  7  8  1  0
  7 32  1  1
  8  9  2  3
  8 33  1  0
  9 10  1  0
  9 34  1  0
 10 19  1  0
 10 11  1  0
 10 35  1  1
 11 18  1  0
 11 12  1  0
 11 36  1  6
 12 13  1  0
 12 37  1  0
 12 38  1  0
 13 17  1  0
 13 14  1  0
 13 39  1  6
 14 15  1  0
 14 40  1  0
 14 41  1  0
 15 16  1  0
 15 42  1  0
 15 43  1  0
 16 17  1  0
 16 44  1  0
 16 45  1  0
 17 18  1  0
 17 46  1  6
 18 19  1  0
 18 47  1  1
 19 20  1  0
 19 48  1  6
 20 21  1  0
 20 49  1  0
 20 50  1  0
 21 25  1  0
 21 22  1  0
 22 23  2  0
 22 51  1  0
 23 24  1  0
 24 25  2  0
M  END
>  <i_m_ct_stereo_status>  (45) 
1

>  <s_m_source_file>  (45) 
/var/tmp/pbs.5076255.sched01/tmpn440o9cr/0yczfkg0t.sdf

>  <i_m_source_file_index>  (45) 
20

>  <i_lp_mmshare_version>  (45) 
48012

>  <i_f3d_flags>  (45) 
0

>  <s_epik_input>  (45) 
W09IXVtDQEBIXTFbQ0gyXU9bQ0BASF0oW09IXSlbQ0BIXTEvW0NIXT1bQ0hdL1tDQEhdMltDQEhdKFtDSDJdbjNbY0hdbm5uMylbQ0BIXShbQ0BASF0yNClbQ0BIXTVbQ0BASF0oW0NIMl00KVtDSDJdW0NIMl1bQ0gyXTU=

>  <s_epik_cmdline>  (45) 
J2VwaWtfcHl0aG9uJywgJy1waHQnLCAnMi4wJywgJy1waCcsICc3LjAnLCAnLXRuJywgJzgnLCAnLW1hJywgJzIwMCcsICctaW1hZScsICc8aW5maWxlLm1hZT4nLCAnLW9tYWUnLCAnPG91dGZpbGUubWFlPic=

>  <r_lp_tautomer_probability>  (45) 
1

>  <r_epik_Ionization_Penalty>  (45) 
2.16571e-07

>  <r_epik_Ionization_Penalty_Charging>  (45) 
0

>  <r_epik_Ionization_Penalty_Neutral>  (45) 
2.16571e-07

>  <r_epik_State_Penalty>  (45) 
-0

>  <r_epik_Charging_Adjusted_Penalty>  (45) 
0

>  <i_epik_Tot_Q>  (45) 
0

>  <i_epik_Tot_abs_Q>  (45) 
0

>  <s_epik_Chemistry_Notes>  (45) 
This compound contains an acetal/aminal-like group ( X-CH(R)-Y where X, Y are N, S, or O) that may be acid/base labile, releasing an aldehyde.

>  <s_lp_Force_Field>  (45) 
OPLS3e

>  <r_lp_Energy>  (45) 
40.5488

>  <b_lp_Chiralities_Consistent>  (45) 
1

>  <s_lp_Variant>  (45) 
16:0-2

>  <s_i_glide_gridfile>  (45) 
pfpi4k_grid

>  <i_i_glide_lignum>  (45) 
20

>  <i_i_glide_rotatable_bonds>  (45) 
6

>  <r_i_docking_score>  (45) 
-4.81374

>  <r_i_glide_ligand_efficiency>  (45) 
-0.19255

>  <r_i_glide_ligand_efficiency_sa>  (45) 
-0.563019

>  <r_i_glide_ligand_efficiency_ln>  (45) 
-1.141

>  <r_i_glide_gscore>  (45) 
-4.81374

>  <r_i_glide_lipo>  (45) 
-1.01649

>  <r_i_glide_hbond>  (45) 
-0.301452

>  <r_i_glide_metal>  (45) 
-0

>  <r_i_glide_rewards>  (45) 
-1.36023

>  <r_i_glide_evdw>  (45) 
-24.38

>  <r_i_glide_ecoul>  (45) 
-9.94954

>  <r_i_glide_erotb>  (45) 
0.633681

>  <r_i_glide_esite>  (45) 
-0.0578235

>  <r_i_glide_emodel>  (45) 
-38.5736

>  <r_i_glide_energy>  (45) 
-34.3296

>  <r_i_glide_einternal>  (45) 
8.75945

>  <r_i_glide_intrahb_reward>  (45) 
-0

>  <i_i_glide_confnum>  (45) 
3

>  <i_i_glide_posenum>  (45) 
13

>  <r_i_glide_eff_state_penalty>  (45) 
0

>  <ligand_id>  (45) 
16

>  <original_smiles>  (45) 
OC1COC(O)C1C=CC1C2CC3CCCC3C2C1Cn1cnnn1

>  <smiles>  (45) 
[H]OC1([H])OC([H])([H])C([H])(O[H])C1([H])C([H])=C([H])C1([H])C([H])(C([H])([H])n2nnnc2[H])C2([H])C1([H])C([H])([H])C1([H])C([H])([H])C([H])([H])C([H])([H])C12[H]

$$$$
16:1:2
     RDKit          3D

 51 55  0  0  1  0  0  0  0  0999 V2000
    1.7091   -3.4505    3.9396 O   0  0  0  0  0  0  0  0  0  0  0  0
    2.9291   -3.0340    4.5356 C   0  0  2  0  0  0  0  0  0  0  0  0
    2.7325   -1.8225    5.4503 C   0  0  0  0  0  0  0  0  0  0  0  0
    3.8597   -0.9824    5.2247 O   0  0  0  0  0  0  0  0  0  0  0  0
    4.1104   -1.0394    3.8690 C   0  0  1  0  0  0  0  0  0  0  0  0
    5.3845   -0.5607    3.5054 O   0  0  0  0  0  0  0  0  0  0  0  0
    3.8899   -2.5058    3.4716 C   0  0  1  0  0  0  0  0  0  0  0  0
    5.1764   -3.3286    3.4087 C   0  0  0  0  0  0  0  0  0  0  0  0
    5.7015   -4.0051    2.3637 C   0  0  0  0  0  0  0  0  0  0  0  0
    5.2063   -4.1789    0.9320 C   0  0  2  0  0  0  0  0  0  0  0  0
    4.8150   -2.9080    0.1714 C   0  0  1  0  0  0  0  0  0  0  0  0
    5.3665   -2.1268   -0.9791 C   0  0  0  0  0  0  0  0  0  0  0  0
    4.0203   -1.7466   -1.6896 C   0  0  1  0  0  0  0  0  0  0  0  0
    4.0580   -1.8375   -3.2215 C   0  0  0  0  0  0  0  0  0  0  0  0
    3.2634   -3.0951   -3.5956 C   0  0  0  0  0  0  0  0  0  0  0  0
    2.2368   -3.2580   -2.4772 C   0  0  0  0  0  0  0  0  0  0  0  0
    2.9359   -2.7729   -1.2064 C   0  0  1  0  0  0  0  0  0  0  0  0
    3.8071   -3.7931   -0.5239 C   0  0  2  0  0  0  0  0  0  0  0  0
    3.7120   -4.6198    0.7669 C   0  0  1  0  0  0  0  0  0  0  0  0
    3.4249   -6.1169    0.7133 C   0  0  0  0  0  0  0  0  0  0  0  0
    2.1264   -6.4293    1.2444 N   0  0  0  0  0  0  0  0  0  0  0  0
    1.7575   -6.8895    2.4487 C   0  0  0  0  0  0  0  0  0  0  0  0
    0.4470   -7.0260    2.5161 N   0  0  0  0  0  0  0  0  0  0  0  0
    0.0032   -6.6466    1.2719 N   0  0  0  0  0  0  0  0  0  0  0  0
    0.9987   -6.2578    0.5239 N   0  0  0  0  0  0  0  0  0  0  0  0
    1.3586   -2.7405    3.4212 H   0  0  0  0  0  0  0  0  0  0  0  0
    3.3673   -3.8727    5.0844 H   0  0  0  0  0  0  0  0  0  0  0  0
    1.8313   -1.2722    5.1679 H   0  0  0  0  0  0  0  0  0  0  0  0
    2.6517   -2.1187    6.4940 H   0  0  0  0  0  0  0  0  0  0  0  0
    3.3793   -0.4140    3.3547 H   0  0  0  0  0  0  0  0  0  0  0  0
    5.4332    0.3511    3.7342 H   0  0  0  0  0  0  0  0  0  0  0  0
    3.3369   -2.4201    2.5508 H   0  0  0  0  0  0  0  0  0  0  0  0
    5.7358   -3.3493    4.3383 H   0  0  0  0  0  0  0  0  0  0  0  0
    6.6267   -4.5214    2.5337 H   0  0  0  0  0  0  0  0  0  0  0  0
    5.8896   -4.8100    0.3569 H   0  0  0  0  0  0  0  0  0  0  0  0
    4.3117   -2.1981    0.8159 H   0  0  0  0  0  0  0  0  0  0  0  0
    5.9158   -1.2480   -0.6455 H   0  0  0  0  0  0  0  0  0  0  0  0
    6.0229   -2.7477   -1.5955 H   0  0  0  0  0  0  0  0  0  0  0  0
    3.7080   -0.7444   -1.3888 H   0  0  0  0  0  0  0  0  0  0  0  0
    3.5758   -0.9549   -3.6458 H   0  0  0  0  0  0  0  0  0  0  0  0
    5.0733   -1.8746   -3.6077 H   0  0  0  0  0  0  0  0  0  0  0  0
    2.7990   -3.0163   -4.5794 H   0  0  0  0  0  0  0  0  0  0  0  0
    3.9273   -3.9601   -3.6062 H   0  0  0  0  0  0  0  0  0  0  0  0
    1.4132   -2.5906   -2.7007 H   0  0  0  0  0  0  0  0  0  0  0  0
    1.8133   -4.2510   -2.3867 H   0  0  0  0  0  0  0  0  0  0  0  0
    2.2308   -2.3542   -0.4835 H   0  0  0  0  0  0  0  0  0  0  0  0
    4.2979   -4.4243   -1.2647 H   0  0  0  0  0  0  0  0  0  0  0  0
    3.0208   -4.1264    1.4439 H   0  0  0  0  0  0  0  0  0  0  0  0
    3.4871   -6.4908   -0.3133 H   0  0  0  0  0  0  0  0  0  0  0  0
    4.1748   -6.6655    1.2742 H   0  0  0  0  0  0  0  0  0  0  0  0
    2.4339   -7.1045    3.2528 H   0  0  0  0  0  0  0  0  0  0  0  0
  1  2  1  0
  1 26  1  0
  2  7  1  0
  2  3  1  0
  2 27  1  1
  3  4  1  0
  3 28  1  0
  3 29  1  0
  4  5  1  0
  5  6  1  0
  5  7  1  0
  5 30  1  6
  6 31  1  0
  7  8  1  0
  7 32  1  6
  8  9  2  3
  8 33  1  0
  9 10  1  0
  9 34  1  0
 10 19  1  0
 10 11  1  0
 10 35  1  6
 11 18  1  0
 11 12  1  0
 11 36  1  1
 12 13  1  0
 12 37  1  0
 12 38  1  0
 13 17  1  0
 13 14  1  0
 13 39  1  6
 14 15  1  0
 14 40  1  0
 14 41  1  0
 15 16  1  0
 15 42  1  0
 15 43  1  0
 16 17  1  0
 16 44  1  0
 16 45  1  0
 17 18  1  0
 17 46  1  1
 18 19  1  0
 18 47  1  6
 19 20  1  0
 19 48  1  1
 20 21  1  0
 20 49  1  0
 20 50  1  0
 21 25  1  0
 21 22  1  0
 22 23  2  0
 22 51  1  0
 23 24  1  0
 24 25  2  0
M  END
>  <i_m_ct_stereo_status>  (46) 
1

>  <s_m_source_file>  (46) 
/var/tmp/pbs.5076255.sched01/tmpn440o9cr/0yczfkg0t.sdf

>  <i_m_source_file_index>  (46) 
20

>  <i_lp_mmshare_version>  (46) 
48012

>  <i_f3d_flags>  (46) 
0

>  <s_epik_input>  (46) 
W09IXVtDQEBIXTFbQ0gyXU9bQ0BASF0oW09IXSlbQ0BIXTEvW0NIXT1bQ0hdL1tDQEhdMltDQEhdKFtDSDJdbjNbY0hdbm5uMylbQ0BIXShbQ0BASF0yNClbQ0BIXTVbQ0BASF0oW0NIMl00KVtDSDJdW0NIMl1bQ0gyXTU=

>  <s_epik_cmdline>  (46) 
J2VwaWtfcHl0aG9uJywgJy1waHQnLCAnMi4wJywgJy1waCcsICc3LjAnLCAnLXRuJywgJzgnLCAnLW1hJywgJzIwMCcsICctaW1hZScsICc8aW5maWxlLm1hZT4nLCAnLW9tYWUnLCAnPG91dGZpbGUubWFlPic=

>  <r_lp_tautomer_probability>  (46) 
1

>  <r_epik_Ionization_Penalty>  (46) 
2.16571e-07

>  <r_epik_Ionization_Penalty_Charging>  (46) 
0

>  <r_epik_Ionization_Penalty_Neutral>  (46) 
2.16571e-07

>  <r_epik_State_Penalty>  (46) 
-0

>  <r_epik_Charging_Adjusted_Penalty>  (46) 
0

>  <i_epik_Tot_Q>  (46) 
0

>  <i_epik_Tot_abs_Q>  (46) 
0

>  <s_epik_Chemistry_Notes>  (46) 
This compound contains an acetal/aminal-like group ( X-CH(R)-Y where X, Y are N, S, or O) that may be acid/base labile, releasing an aldehyde.

>  <s_lp_Force_Field>  (46) 
OPLS3e

>  <r_lp_Energy>  (46) 
40.5488

>  <b_lp_Chiralities_Consistent>  (46) 
1

>  <s_lp_Variant>  (46) 
16:0-2

>  <s_i_glide_gridfile>  (46) 
pfpi4k_grid

>  <i_i_glide_lignum>  (46) 
20

>  <i_i_glide_rotatable_bonds>  (46) 
6

>  <r_i_docking_score>  (46) 
-3.11917

>  <r_i_glide_ligand_efficiency>  (46) 
-0.124767

>  <r_i_glide_ligand_efficiency_sa>  (46) 
-0.36482

>  <r_i_glide_ligand_efficiency_ln>  (46) 
-0.739337

>  <r_i_glide_gscore>  (46) 
-3.11917

>  <r_i_glide_lipo>  (46) 
-0.692365

>  <r_i_glide_hbond>  (46) 
0

>  <r_i_glide_metal>  (46) 
-0

>  <r_i_glide_rewards>  (46) 
-1.05391

>  <r_i_glide_evdw>  (46) 
-22.5989

>  <r_i_glide_ecoul>  (46) 
-3.80292

>  <r_i_glide_erotb>  (46) 
0.633681

>  <r_i_glide_esite>  (46) 
-0.306193

>  <r_i_glide_emodel>  (46) 
-30.8476

>  <r_i_glide_energy>  (46) 
-26.4019

>  <r_i_glide_einternal>  (46) 
5.32993

>  <r_i_glide_intrahb_reward>  (46) 
-0

>  <i_i_glide_confnum>  (46) 
3

>  <i_i_glide_posenum>  (46) 
9

>  <r_i_glide_eff_state_penalty>  (46) 
0

>  <ligand_id>  (46) 
16

>  <original_smiles>  (46) 
OC1COC(O)C1C=CC1C2CC3CCCC3C2C1Cn1cnnn1

>  <smiles>  (46) 
[H]OC1([H])OC([H])([H])C([H])(O[H])C1([H])C([H])=C([H])C1([H])C([H])(C([H])([H])n2nnnc2[H])C2([H])C1([H])C([H])([H])C1([H])C([H])([H])C([H])([H])C([H])([H])C12[H]

$$$$
17:0:0
     RDKit          3D

 33 35  0  0  1  0  0  0  0  0999 V2000
   -6.4460  -12.7492  -10.2681 O   0  0  0  0  0  0  0  0  0  0  0  0
   -7.3622  -12.0775   -9.8067 C   0  0  0  0  0  0  0  0  0  0  0  0
   -8.5238  -11.8900  -10.4548 N   0  0  0  0  0  0  0  0  0  0  0  0
   -9.5643  -11.0353  -10.0377 C   0  0  0  0  0  0  0  0  0  0  0  0
  -10.6570  -10.8100  -10.8925 C   0  0  0  0  0  0  0  0  0  0  0  0
  -11.7046   -9.9777  -10.4765 C   0  0  0  0  0  0  0  0  0  0  0  0
  -11.6622   -9.3748   -9.2087 C   0  0  0  0  0  0  0  0  0  0  0  0
  -12.9448   -8.3358   -8.7214 Cl  0  0  0  0  0  0  0  0  0  0  0  0
  -10.5736   -9.6064   -8.3486 C   0  0  0  0  0  0  0  0  0  0  0  0
   -9.5048  -10.4333   -8.7652 C   0  0  0  0  0  0  0  0  0  0  0  0
   -8.2879  -10.7440   -7.8756 C   0  0  1  0  0  0  0  0  0  0  0  0
   -7.7178   -9.4959   -7.3193 C   0  0  0  0  0  0  0  0  0  0  0  0
   -7.2848   -8.4693   -6.8228 C   0  0  0  0  0  0  0  0  0  0  0  0
   -6.7870   -7.2446   -6.2166 C   0  0  0  0  0  0  0  0  0  0  0  0
   -7.5716   -6.0736   -6.2092 C   0  0  0  0  0  0  0  0  0  0  0  0
   -7.0422   -4.9111   -5.6205 C   0  0  0  0  0  0  0  0  0  0  0  0
   -5.7519   -4.9694   -5.0654 C   0  0  0  0  0  0  0  0  0  0  0  0
   -4.9868   -6.0862   -5.0682 N   0  0  0  0  0  0  0  0  0  0  0  0
   -5.5103   -7.2016   -5.6282 C   0  0  0  0  0  0  0  0  0  0  0  0
   -8.6826  -11.7091   -6.7304 C   0  0  0  0  0  0  0  0  0  0  0  0
   -9.4193  -12.7180   -7.1956 F   0  0  0  0  0  0  0  0  0  0  0  0
   -7.5892  -12.2304   -6.1710 F   0  0  0  0  0  0  0  0  0  0  0  0
   -9.3857  -11.0794   -5.7870 F   0  0  0  0  0  0  0  0  0  0  0  0
   -7.2312  -11.4105   -8.6471 N   0  0  0  0  0  0  0  0  0  0  0  0
   -8.6295  -12.3546  -11.3467 H   0  0  0  0  0  0  0  0  0  0  0  0
  -10.6912  -11.2842  -11.8653 H   0  0  0  0  0  0  0  0  0  0  0  0
  -12.5420   -9.8003  -11.1347 H   0  0  0  0  0  0  0  0  0  0  0  0
  -10.5609   -9.1403   -7.3732 H   0  0  0  0  0  0  0  0  0  0  0  0
   -8.5586   -6.0617   -6.6496 H   0  0  0  0  0  0  0  0  0  0  0  0
   -7.6100   -3.9908   -5.5970 H   0  0  0  0  0  0  0  0  0  0  0  0
   -5.3108   -4.0942   -4.6127 H   0  0  0  0  0  0  0  0  0  0  0  0
   -4.8708   -8.0735   -5.6218 H   0  0  0  0  0  0  0  0  0  0  0  0
   -6.3383  -11.4846   -8.1879 H   0  0  0  0  0  0  0  0  0  0  0  0
  1  2  2  0
  2 24  1  0
  2  3  1  0
  3  4  1  0
  3 25  1  0
  4 10  2  0
  4  5  1  0
  5  6  2  0
  5 26  1  0
  6  7  1  0
  6 27  1  0
  7  8  1  0
  7  9  2  0
  9 10  1  0
  9 28  1  0
 10 11  1  0
 11 12  1  1
 11 20  1  0
 11 24  1  0
 12 13  3  0
 13 14  1  0
 14 19  1  0
 14 15  2  0
 15 16  1  0
 15 29  1  0
 16 17  2  0
 16 30  1  0
 17 18  1  0
 17 31  1  0
 18 19  2  0
 19 32  1  0
 20 21  1  0
 20 22  1  0
 20 23  1  0
 24 33  1  0
M  END
>  <i_m_ct_stereo_status>  (47) 
1

>  <s_m_source_file>  (47) 
/var/tmp/pbs.5076255.sched01/tmpn440o9cr/0yczfkg0t.sdf

>  <i_m_source_file_index>  (47) 
21

>  <i_lp_mmshare_version>  (47) 
48012

>  <i_f3d_flags>  (47) 
0

>  <s_epik_input>  (47) 
W2NIXTFbY0hdYyhDbClbY0hdYyhjMTIpW0NAQF0oQyhGKShGKUYpKFtOSF1DKD1PKVtOSF0yKUMjQ2MzW2NIXVtjSF1bY0hdbltjSF0z

>  <s_epik_cmdline>  (47) 
J2VwaWtfcHl0aG9uJywgJy1waHQnLCAnMi4wJywgJy1waCcsICc3LjAnLCAnLXRuJywgJzgnLCAnLW1hJywgJzIwMCcsICctaW1hZScsICc8aW5maWxlLm1hZT4nLCAnLW9tYWUnLCAnPG91dGZpbGUubWFlPic=

>  <r_epik_Ionization_Penalty>  (47) 
0.00187119

>  <r_epik_Ionization_Penalty_Charging>  (47) 
0

>  <r_epik_Ionization_Penalty_Neutral>  (47) 
0.00187119

>  <r_epik_State_Penalty>  (47) 
0.00124592

>  <r_epik_Charging_Adjusted_Penalty>  (47) 
0.00124592

>  <i_epik_Tot_Q>  (47) 
0

>  <i_epik_Tot_abs_Q>  (47) 
0

>  <s_lp_Force_Field>  (47) 
OPLS3e

>  <r_lp_Energy>  (47) 
34.368

>  <b_lp_Chiralities_Consistent>  (47) 
1

>  <s_lp_Variant>  (47) 
17:0-1

>  <s_i_glide_gridfile>  (47) 
pfpi4k_grid

>  <i_i_glide_lignum>  (47) 
21

>  <i_i_glide_rotatable_bonds>  (47) 
3

>  <r_i_docking_score>  (47) 
-6.17183

>  <r_i_glide_ligand_efficiency>  (47) 
-0.25716

>  <r_i_glide_ligand_efficiency_sa>  (47) 
-0.741777

>  <r_i_glide_ligand_efficiency_ln>  (47) 
-1.4772

>  <r_i_glide_gscore>  (47) 
-6.17183

>  <r_i_glide_lipo>  (47) 
-1.8992

>  <r_i_glide_hbond>  (47) 
-0.32

>  <r_i_glide_metal>  (47) 
-0

>  <r_i_glide_rewards>  (47) 
-2.45509

>  <r_i_glide_evdw>  (47) 
-26.3252

>  <r_i_glide_ecoul>  (47) 
-3.06218

>  <r_i_glide_erotb>  (47) 
0.308426

>  <r_i_glide_esite>  (47) 
-0.0303816

>  <r_i_glide_emodel>  (47) 
-41.7667

>  <r_i_glide_energy>  (47) 
-29.3874

>  <r_i_glide_einternal>  (47) 
1.35007

>  <r_i_glide_intrahb_reward>  (47) 
-0

>  <i_i_glide_confnum>  (47) 
2

>  <i_i_glide_posenum>  (47) 
35

>  <r_i_glide_eff_state_penalty>  (47) 
0

>  <ligand_id>  (47) 
17

>  <original_smiles>  (47) 
O=C1Nc2ccc(Cl)cc2C(C#Cc2cccnc2)(C(F)(F)F)N1

>  <smiles>  (47) 
[H]c1nc([H])c(C#CC2(C(F)(F)F)c3c([H])c(Cl)c([H])c([H])c3N([H])C(=O)N2[H])c([H])c1[H]

$$$$
17:0:1
     RDKit          3D

 33 35  0  0  1  0  0  0  0  0999 V2000
    6.6135  -10.0944    0.9054 O   0  0  0  0  0  0  0  0  0  0  0  0
    5.7286   -9.3775    1.3488 C   0  0  0  0  0  0  0  0  0  0  0  0
    4.5249   -9.8597    1.6820 N   0  0  0  0  0  0  0  0  0  0  0  0
    3.4030   -9.0931    2.0502 C   0  0  0  0  0  0  0  0  0  0  0  0
    2.1574   -9.7269    2.2325 C   0  0  0  0  0  0  0  0  0  0  0  0
    1.0305   -8.9671    2.5946 C   0  0  0  0  0  0  0  0  0  0  0  0
    1.1642   -7.5788    2.7812 C   0  0  0  0  0  0  0  0  0  0  0  0
   -0.2051   -6.6588    3.2429 Cl  0  0  0  0  0  0  0  0  0  0  0  0
    2.4080   -6.9441    2.6027 C   0  0  0  0  0  0  0  0  0  0  0  0
    3.5434   -7.7007    2.2312 C   0  0  0  0  0  0  0  0  0  0  0  0
    4.9420   -7.0912    2.0332 C   0  0  1  0  0  0  0  0  0  0  0  0
    4.8609   -5.9130    1.1532 C   0  0  0  0  0  0  0  0  0  0  0  0
    4.8029   -4.9087    0.4534 C   0  0  0  0  0  0  0  0  0  0  0  0
    4.7427   -3.7242   -0.3764 C   0  0  0  0  0  0  0  0  0  0  0  0
    3.5236   -3.3100   -0.9491 C   0  0  0  0  0  0  0  0  0  0  0  0
    3.5219   -2.1548   -1.7526 C   0  0  0  0  0  0  0  0  0  0  0  0
    4.7286   -1.4628   -1.9468 C   0  0  0  0  0  0  0  0  0  0  0  0
    5.9078   -1.8556   -1.4130 N   0  0  0  0  0  0  0  0  0  0  0  0
    5.9006   -2.9643   -0.6378 C   0  0  0  0  0  0  0  0  0  0  0  0
    5.5652   -6.7097    3.3968 C   0  0  0  0  0  0  0  0  0  0  0  0
    5.6621   -7.7929    4.1778 F   0  0  0  0  0  0  0  0  0  0  0  0
    6.7985   -6.2119    3.2251 F   0  0  0  0  0  0  0  0  0  0  0  0
    4.8218   -5.7965    4.0293 F   0  0  0  0  0  0  0  0  0  0  0  0
    5.8678   -8.0525    1.4329 N   0  0  0  0  0  0  0  0  0  0  0  0
    4.3722  -10.8534    1.5322 H   0  0  0  0  0  0  0  0  0  0  0  0
    2.0705  -10.7978    2.0995 H   0  0  0  0  0  0  0  0  0  0  0  0
    0.0742   -9.4534    2.7260 H   0  0  0  0  0  0  0  0  0  0  0  0
    2.4943   -5.8753    2.7610 H   0  0  0  0  0  0  0  0  0  0  0  0
    2.6088   -3.8623   -0.7748 H   0  0  0  0  0  0  0  0  0  0  0  0
    2.6024   -1.7980   -2.1966 H   0  0  0  0  0  0  0  0  0  0  0  0
    4.7576   -0.5690   -2.5504 H   0  0  0  0  0  0  0  0  0  0  0  0
    6.8574   -3.2451   -0.2166 H   0  0  0  0  0  0  0  0  0  0  0  0
    6.7258   -7.6834    1.0648 H   0  0  0  0  0  0  0  0  0  0  0  0
  1  2  2  0
  2 24  1  0
  2  3  1  0
  3  4  1  0
  3 25  1  0
  4 10  2  0
  4  5  1  0
  5  6  2  0
  5 26  1  0
  6  7  1  0
  6 27  1  0
  7  8  1  0
  7  9  2  0
  9 10  1  0
  9 28  1  0
 10 11  1  0
 11 12  1  6
 11 20  1  0
 11 24  1  0
 12 13  3  0
 13 14  1  0
 14 19  1  0
 14 15  2  0
 15 16  1  0
 15 29  1  0
 16 17  2  0
 16 30  1  0
 17 18  1  0
 17 31  1  0
 18 19  2  0
 19 32  1  0
 20 21  1  0
 20 22  1  0
 20 23  1  0
 24 33  1  0
M  END
>  <i_m_ct_stereo_status>  (48) 
1

>  <s_m_source_file>  (48) 
/var/tmp/pbs.5076255.sched01/tmpn440o9cr/0yczfkg0t.sdf

>  <i_m_source_file_index>  (48) 
21

>  <i_lp_mmshare_version>  (48) 
48012

>  <i_f3d_flags>  (48) 
0

>  <s_epik_input>  (48) 
W2NIXTFbY0hdYyhDbClbY0hdYyhjMTIpW0NAQF0oQyhGKShGKUYpKFtOSF1DKD1PKVtOSF0yKUMjQ2MzW2NIXVtjSF1bY0hdbltjSF0z

>  <s_epik_cmdline>  (48) 
J2VwaWtfcHl0aG9uJywgJy1waHQnLCAnMi4wJywgJy1waCcsICc3LjAnLCAnLXRuJywgJzgnLCAnLW1hJywgJzIwMCcsICctaW1hZScsICc8aW5maWxlLm1hZT4nLCAnLW9tYWUnLCAnPG91dGZpbGUubWFlPic=

>  <r_epik_Ionization_Penalty>  (48) 
0.00187119

>  <r_epik_Ionization_Penalty_Charging>  (48) 
0

>  <r_epik_Ionization_Penalty_Neutral>  (48) 
0.00187119

>  <r_epik_State_Penalty>  (48) 
0.00124592

>  <r_epik_Charging_Adjusted_Penalty>  (48) 
0.00124592

>  <i_epik_Tot_Q>  (48) 
0

>  <i_epik_Tot_abs_Q>  (48) 
0

>  <s_lp_Force_Field>  (48) 
OPLS3e

>  <r_lp_Energy>  (48) 
34.368

>  <b_lp_Chiralities_Consistent>  (48) 
1

>  <s_lp_Variant>  (48) 
17:0-1

>  <s_i_glide_gridfile>  (48) 
pfpi4k_grid

>  <i_i_glide_lignum>  (48) 
21

>  <i_i_glide_rotatable_bonds>  (48) 
3

>  <r_i_docking_score>  (48) 
-3.73657

>  <r_i_glide_ligand_efficiency>  (48) 
-0.15569

>  <r_i_glide_ligand_efficiency_sa>  (48) 
-0.449089

>  <r_i_glide_ligand_efficiency_ln>  (48) 
-0.894332

>  <r_i_glide_gscore>  (48) 
-3.73657

>  <r_i_glide_lipo>  (48) 
-0.345888

>  <r_i_glide_hbond>  (48) 
-0.226387

>  <r_i_glide_metal>  (48) 
-0

>  <r_i_glide_rewards>  (48) 
-1.01872

>  <r_i_glide_evdw>  (48) 
-24.7877

>  <r_i_glide_ecoul>  (48) 
-7.4247

>  <r_i_glide_erotb>  (48) 
0.308426

>  <r_i_glide_esite>  (48) 
-0.100908

>  <r_i_glide_emodel>  (48) 
-39.9317

>  <r_i_glide_energy>  (48) 
-32.2124

>  <r_i_glide_einternal>  (48) 
0.542795

>  <r_i_glide_intrahb_reward>  (48) 
-0

>  <i_i_glide_confnum>  (48) 
1

>  <i_i_glide_posenum>  (48) 
19

>  <r_i_glide_eff_state_penalty>  (48) 
0

>  <ligand_id>  (48) 
17

>  <original_smiles>  (48) 
O=C1Nc2ccc(Cl)cc2C(C#Cc2cccnc2)(C(F)(F)F)N1

>  <smiles>  (48) 
[H]c1nc([H])c(C#CC2(C(F)(F)F)c3c([H])c(Cl)c([H])c([H])c3N([H])C(=O)N2[H])c([H])c1[H]

$$$$
17:0:2
     RDKit          3D

 33 35  0  0  1  0  0  0  0  0999 V2000
    4.3795   -2.1983   -3.0287 O   0  0  0  0  0  0  0  0  0  0  0  0
    4.3699   -2.5435   -1.8488 C   0  0  0  0  0  0  0  0  0  0  0  0
    4.6126   -3.8125   -1.4740 N   0  0  0  0  0  0  0  0  0  0  0  0
    4.5141   -4.3098   -0.1551 C   0  0  0  0  0  0  0  0  0  0  0  0
    4.6148   -5.6952    0.0758 C   0  0  0  0  0  0  0  0  0  0  0  0
    4.5299   -6.1984    1.3855 C   0  0  0  0  0  0  0  0  0  0  0  0
    4.3413   -5.3152    2.4639 C   0  0  0  0  0  0  0  0  0  0  0  0
    4.2326   -5.9327    4.0667 Cl  0  0  0  0  0  0  0  0  0  0  0  0
    4.2408   -3.9282    2.2325 C   0  0  0  0  0  0  0  0  0  0  0  0
    4.3233   -3.4127    0.9138 C   0  0  0  0  0  0  0  0  0  0  0  0
    4.2314   -1.9100    0.5945 C   0  0  1  0  0  0  0  0  0  0  0  0
    3.0589   -1.3170    1.2760 C   0  0  0  0  0  0  0  0  0  0  0  0
    2.1218   -0.8106    1.8737 C   0  0  0  0  0  0  0  0  0  0  0  0
    1.0123   -0.2187    2.6000 C   0  0  0  0  0  0  0  0  0  0  0  0
    0.5968   -0.7541    3.8347 C   0  0  0  0  0  0  0  0  0  0  0  0
   -0.4942   -0.1591    4.4999 C   0  0  0  0  0  0  0  0  0  0  0  0
   -1.1185    0.9505    3.8994 C   0  0  0  0  0  0  0  0  0  0  0  0
   -0.7316    1.4666    2.7176 N   0  0  0  0  0  0  0  0  0  0  0  0
    0.3155    0.8956    2.0812 C   0  0  0  0  0  0  0  0  0  0  0  0
    5.5294   -1.1775    1.0463 C   0  0  0  0  0  0  0  0  0  0  0  0
    6.5783   -1.5936    0.3295 F   0  0  0  0  0  0  0  0  0  0  0  0
    5.4129    0.1392    0.8772 F   0  0  0  0  0  0  0  0  0  0  0  0
    5.7933   -1.3925    2.3374 F   0  0  0  0  0  0  0  0  0  0  0  0
    4.0822   -1.6865   -0.8529 N   0  0  0  0  0  0  0  0  0  0  0  0
    4.7947   -4.4861   -2.2056 H   0  0  0  0  0  0  0  0  0  0  0  0
    4.7570   -6.3728   -0.7547 H   0  0  0  0  0  0  0  0  0  0  0  0
    4.6067   -7.2614    1.5551 H   0  0  0  0  0  0  0  0  0  0  0  0
    4.1005   -3.2656    3.0734 H   0  0  0  0  0  0  0  0  0  0  0  0
    1.0962   -1.6091    4.2655 H   0  0  0  0  0  0  0  0  0  0  0  0
   -0.8380   -0.5405    5.4482 H   0  0  0  0  0  0  0  0  0  0  0  0
   -1.9543    1.4355    4.3804 H   0  0  0  0  0  0  0  0  0  0  0  0
    0.5942    1.3339    1.1348 H   0  0  0  0  0  0  0  0  0  0  0  0
    3.8032   -0.7581   -1.1308 H   0  0  0  0  0  0  0  0  0  0  0  0
  1  2  2  0
  2 24  1  0
  2  3  1  0
  3  4  1  0
  3 25  1  0
  4 10  2  0
  4  5  1  0
  5  6  2  0
  5 26  1  0
  6  7  1  0
  6 27  1  0
  7  8  1  0
  7  9  2  0
  9 10  1  0
  9 28  1  0
 10 11  1  0
 11 12  1  1
 11 20  1  0
 11 24  1  0
 12 13  3  0
 13 14  1  0
 14 19  1  0
 14 15  2  0
 15 16  1  0
 15 29  1  0
 16 17  2  0
 16 30  1  0
 17 18  1  0
 17 31  1  0
 18 19  2  0
 19 32  1  0
 20 21  1  0
 20 22  1  0
 20 23  1  0
 24 33  1  0
M  END
>  <i_m_ct_stereo_status>  (49) 
1

>  <s_m_source_file>  (49) 
/var/tmp/pbs.5076255.sched01/tmpn440o9cr/0yczfkg0t.sdf

>  <i_m_source_file_index>  (49) 
21

>  <i_lp_mmshare_version>  (49) 
48012

>  <i_f3d_flags>  (49) 
0

>  <s_epik_input>  (49) 
W2NIXTFbY0hdYyhDbClbY0hdYyhjMTIpW0NAQF0oQyhGKShGKUYpKFtOSF1DKD1PKVtOSF0yKUMjQ2MzW2NIXVtjSF1bY0hdbltjSF0z

>  <s_epik_cmdline>  (49) 
J2VwaWtfcHl0aG9uJywgJy1waHQnLCAnMi4wJywgJy1waCcsICc3LjAnLCAnLXRuJywgJzgnLCAnLW1hJywgJzIwMCcsICctaW1hZScsICc8aW5maWxlLm1hZT4nLCAnLW9tYWUnLCAnPG91dGZpbGUubWFlPic=

>  <r_epik_Ionization_Penalty>  (49) 
0.00187119

>  <r_epik_Ionization_Penalty_Charging>  (49) 
0

>  <r_epik_Ionization_Penalty_Neutral>  (49) 
0.00187119

>  <r_epik_State_Penalty>  (49) 
0.00124592

>  <r_epik_Charging_Adjusted_Penalty>  (49) 
0.00124592

>  <i_epik_Tot_Q>  (49) 
0

>  <i_epik_Tot_abs_Q>  (49) 
0

>  <s_lp_Force_Field>  (49) 
OPLS3e

>  <r_lp_Energy>  (49) 
34.368

>  <b_lp_Chiralities_Consistent>  (49) 
1

>  <s_lp_Variant>  (49) 
17:0-1

>  <s_i_glide_gridfile>  (49) 
pfpi4k_grid

>  <i_i_glide_lignum>  (49) 
21

>  <i_i_glide_rotatable_bonds>  (49) 
3

>  <r_i_docking_score>  (49) 
-3.00974

>  <r_i_glide_ligand_efficiency>  (49) 
-0.125406

>  <r_i_glide_ligand_efficiency_sa>  (49) 
-0.361733

>  <r_i_glide_ligand_efficiency_ln>  (49) 
-0.720369

>  <r_i_glide_gscore>  (49) 
-3.00974

>  <r_i_glide_lipo>  (49) 
-0.24632

>  <r_i_glide_hbond>  (49) 
0

>  <r_i_glide_metal>  (49) 
-0

>  <r_i_glide_rewards>  (49) 
-1.2874

>  <r_i_glide_evdw>  (49) 
-27.0881

>  <r_i_glide_ecoul>  (49) 
-2.39139

>  <r_i_glide_erotb>  (49) 
0.308426

>  <r_i_glide_esite>  (49) 
-0.071329

>  <r_i_glide_emodel>  (49) 
-35.4862

>  <r_i_glide_energy>  (49) 
-29.4795

>  <r_i_glide_einternal>  (49) 
0.714166

>  <r_i_glide_intrahb_reward>  (49) 
-0

>  <i_i_glide_confnum>  (49) 
1

>  <i_i_glide_posenum>  (49) 
40

>  <r_i_glide_eff_state_penalty>  (49) 
0

>  <ligand_id>  (49) 
17

>  <original_smiles>  (49) 
O=C1Nc2ccc(Cl)cc2C(C#Cc2cccnc2)(C(F)(F)F)N1

>  <smiles>  (49) 
[H]c1nc([H])c(C#CC2(C(F)(F)F)c3c([H])c(Cl)c([H])c([H])c3N([H])C(=O)N2[H])c([H])c1[H]

$$$$
18:0:0
     RDKit          3D

103109  0  0  1  0  0  0  0  0999 V2000
    1.4216    4.8912   10.2196 C   0  0  0  0  0  0  0  0  0  0  0  0
    1.0968    4.3364    8.9422 O   0  0  0  0  0  0  0  0  0  0  0  0
    1.0359    5.2352    7.8724 C   0  0  1  0  0  0  0  0  0  0  0  0
   -0.0586    6.2956    8.1435 C   0  0  0  0  0  0  0  0  0  0  0  0
    2.2750    5.9044    7.6843 O   0  0  0  0  0  0  0  0  0  0  0  0
    2.5964    6.3299    6.3489 C   0  0  1  0  0  0  0  0  0  0  0  0
    3.7023    7.1888    6.3472 O   0  0  0  0  0  0  0  0  0  0  0  0
    3.6267    8.3037    7.1321 C   0  0  0  0  0  0  0  0  0  0  0  0
    2.2297    8.8583    7.4582 C   0  0  0  0  0  0  0  0  0  0  0  0
    4.6336    8.8758    7.5562 O   0  0  0  0  0  0  0  0  0  0  0  0
    2.8013    5.0742    5.3416 C   0  0  2  0  0  0  0  0  0  0  0  0
    4.3407    4.8736    5.1529 C   0  0  0  0  0  0  0  0  0  0  0  0
    1.9555    5.0956    3.9572 C   0  0  0  0  0  0  0  0  0  0  0  0
    1.1376    6.3845    3.6852 C   0  0  0  0  0  0  0  0  0  0  0  0
    2.8758    4.9882    2.7064 C   0  0  0  0  0  0  0  0  0  0  0  0
    1.0500    3.7573    3.9629 C   0  0  2  0  0  0  0  0  0  0  0  0
   -0.4396    3.8906    4.5360 C   0  0  1  0  0  0  0  0  0  0  0  0
   -1.2677    2.8931    3.9878 O   0  0  0  0  0  0  0  0  0  0  0  0
   -0.5560    3.8279    6.1202 C   0  0  0  0  0  0  0  0  0  0  0  0
    0.7902    4.4269    6.5834 C   0  0  2  0  0  0  0  0  0  0  0  0
    2.1421    3.8362    6.0189 C   0  0  2  0  0  0  0  0  0  0  0  0
    3.0285    3.3259    7.0025 O   0  0  0  0  0  0  0  0  0  0  0  0
    1.9146    2.8236    4.8556 C   0  0  1  0  0  0  0  0  0  0  0  0
    1.4362    1.3185    5.1490 C   0  0  2  0  0  0  0  0  0  0  0  0
    1.1545    0.9501    6.6636 C   0  0  0  0  0  0  0  0  0  0  0  0
    2.2507    0.1462    4.4370 C   0  0  2  0  0  0  0  0  0  0  0  0
    3.7565    0.2573    4.8527 C   0  0  1  0  0  0  0  0  0  0  0  0
    4.2685   -0.2548    6.2168 C   0  0  0  0  0  0  0  0  0  0  0  0
    4.5081   -1.7526    6.4053 C   0  0  1  0  0  0  0  0  0  0  0  0
    5.3581   -1.9831    7.6648 C   0  0  0  0  0  0  0  0  0  0  0  0
    3.1986   -2.5772    6.5244 C   0  0  0  0  0  0  0  0  0  0  0  0
    2.0319   -2.4655    5.5134 C   0  0  2  0  0  0  0  0  0  0  0  0
    0.9890   -3.2731    6.0286 O   0  0  0  0  0  0  0  0  0  0  0  0
    2.1001   -2.5629    3.9962 C   0  0  2  0  0  0  0  0  0  0  0  0
    1.0919   -3.3828    3.4267 O   0  0  0  0  0  0  0  0  0  0  0  0
    3.4242   -2.8062    3.2671 C   0  0  1  0  0  0  0  0  0  0  0  0
    3.6262   -4.1662    2.9077 O   0  0  0  0  0  0  0  0  0  0  0  0
    3.6934   -1.8810    2.0599 C   0  0  1  0  0  0  0  0  0  0  0  0
    2.8600   -2.2258    0.8117 C   0  0  0  0  0  0  0  0  0  0  0  0
    3.7027   -0.3603    2.4134 C   0  0  2  0  0  0  0  0  0  0  0  0
    4.5860   -0.1264    3.6315 C   0  0  0  0  0  0  0  0  0  0  0  0
    5.8075   -0.2181    3.6287 O   0  0  0  0  0  0  0  0  0  0  0  0
    2.3952    0.3492    2.8781 C   0  0  1  0  0  0  0  0  0  0  0  0
    1.2654    0.0280    2.0738 O   0  0  0  0  0  0  0  0  0  0  0  0
    1.5532   -1.2591    4.6568 C   0  0  2  0  0  0  0  0  0  0  0  0
    0.1363   -1.1768    4.3476 O   0  0  0  0  0  0  0  0  0  0  0  0
   -0.8558   -0.9913    5.2182 C   0  0  0  0  0  0  0  0  0  0  0  0
   -2.1787   -0.5765    4.5754 C   0  0  0  0  0  0  0  0  0  0  0  0
   -0.7658   -1.0724    6.4791 O   0  0  0  0  0  0  0  0  0  0  0  0
    1.6697    4.0863   10.9077 H   0  0  0  0  0  0  0  0  0  0  0  0
    0.5802    5.4280   10.6578 H   0  0  0  0  0  0  0  0  0  0  0  0
    2.2788    5.5657   10.1908 H   0  0  0  0  0  0  0  0  0  0  0  0
    0.2171    6.9357    8.9837 H   0  0  0  0  0  0  0  0  0  0  0  0
   -0.9963    5.8124    8.3901 H   0  0  0  0  0  0  0  0  0  0  0  0
   -0.2091    6.9324    7.2729 H   0  0  0  0  0  0  0  0  0  0  0  0
    1.7766    6.9378    5.9970 H   0  0  0  0  0  0  0  0  0  0  0  0
    1.6393    8.0908    7.9495 H   0  0  0  0  0  0  0  0  0  0  0  0
    1.7222    9.1658    6.5397 H   0  0  0  0  0  0  0  0  0  0  0  0
    2.2565    9.7020    8.1526 H   0  0  0  0  0  0  0  0  0  0  0  0
    4.6031    3.9448    4.6482 H   0  0  0  0  0  0  0  0  0  0  0  0
    4.8652    4.8620    6.1114 H   0  0  0  0  0  0  0  0  0  0  0  0
    4.7751    5.6937    4.5779 H   0  0  0  0  0  0  0  0  0  0  0  0
    0.6155    6.2929    2.7339 H   0  0  0  0  0  0  0  0  0  0  0  0
    1.7834    7.2584    3.6209 H   0  0  0  0  0  0  0  0  0  0  0  0
    0.3679    6.6217    4.4144 H   0  0  0  0  0  0  0  0  0  0  0  0
    2.2771    4.9719    1.7936 H   0  0  0  0  0  0  0  0  0  0  0  0
    3.4703    4.0778    2.6834 H   0  0  0  0  0  0  0  0  0  0  0  0
    3.5534    5.8401    2.6297 H   0  0  0  0  0  0  0  0  0  0  0  0
    1.0023    3.3567    2.9404 H   0  0  0  0  0  0  0  0  0  0  0  0
   -0.8675    4.8218    4.1570 H   0  0  0  0  0  0  0  0  0  0  0  0
   -1.1725    2.9095    3.0467 H   0  0  0  0  0  0  0  0  0  0  0  0
   -1.3746    4.5237    6.4148 H   0  0  0  0  0  0  0  0  0  0  0  0
   -0.7563    2.8574    6.4777 H   0  0  0  0  0  0  0  0  0  0  0  0
    0.5611    5.3002    6.0003 H   0  0  0  0  0  0  0  0  0  0  0  0
    3.8453    3.0534    6.6098 H   0  0  0  0  0  0  0  0  0  0  0  0
    2.8549    2.7482    4.3126 H   0  0  0  0  0  0  0  0  0  0  0  0
    0.4915    1.2632    4.6256 H   0  0  0  0  0  0  0  0  0  0  0  0
    1.9804    1.3062    7.3076 H   0  0  0  0  0  0  0  0  0  0  0  0
    1.1308   -0.1152    6.7849 H   0  0  0  0  0  0  0  0  0  0  0  0
    0.2631    1.3700    6.9976 H   0  0  0  0  0  0  0  0  0  0  0  0
    4.0058    1.3120    4.9166 H   0  0  0  0  0  0  0  0  0  0  0  0
    5.2281    0.2437    6.3694 H   0  0  0  0  0  0  0  0  0  0  0  0
    3.6616    0.1196    7.0302 H   0  0  0  0  0  0  0  0  0  0  0  0
    5.1529   -2.1056    5.6100 H   0  0  0  0  0  0  0  0  0  0  0  0
    4.8410   -1.6283    8.5562 H   0  0  0  0  0  0  0  0  0  0  0  0
    6.3143   -1.4580    7.5995 H   0  0  0  0  0  0  0  0  0  0  0  0
    5.5743   -3.0434    7.7951 H   0  0  0  0  0  0  0  0  0  0  0  0
    3.4940   -3.6282    6.5607 H   0  0  0  0  0  0  0  0  0  0  0  0
    2.7732   -2.3701    7.5100 H   0  0  0  0  0  0  0  0  0  0  0  0
    1.3106   -4.1561    6.1002 H   0  0  0  0  0  0  0  0  0  0  0  0
    0.9162   -3.0363    2.5690 H   0  0  0  0  0  0  0  0  0  0  0  0
    4.2251   -2.6809    3.9676 H   0  0  0  0  0  0  0  0  0  0  0  0
    2.9994   -4.4103    2.2444 H   0  0  0  0  0  0  0  0  0  0  0  0
    4.7199   -2.1077    1.7629 H   0  0  0  0  0  0  0  0  0  0  0  0
    1.7921   -2.2037    1.0167 H   0  0  0  0  0  0  0  0  0  0  0  0
    3.1018   -3.2211    0.4367 H   0  0  0  0  0  0  0  0  0  0  0  0
    3.0612   -1.5138    0.0082 H   0  0  0  0  0  0  0  0  0  0  0  0
    4.1343    0.1764    1.5654 H   0  0  0  0  0  0  0  0  0  0  0  0
    2.5763    1.4052    2.6733 H   0  0  0  0  0  0  0  0  0  0  0  0
    1.4748    0.1359    1.1509 H   0  0  0  0  0  0  0  0  0  0  0  0
   -2.8651   -1.4210    4.4380 H   0  0  0  0  0  0  0  0  0  0  0  0
   -2.0092   -0.0642    3.5952 H   0  0  0  0  0  0  0  0  0  0  0  0
   -2.7137    0.1360    5.2020 H   0  0  0  0  0  0  0  0  0  0  0  0
  1  2  1  0
  1 50  1  0
  1 51  1  0
  1 52  1  0
  3  2  1  1
  3 20  1  0
  3  4  1  0
  3  5  1  0
  4 53  1  0
  4 54  1  0
  4 55  1  0
  5  6  1  0
  6  7  1  0
  6 11  1  0
  6 56  1  6
  7  8  1  0
  8  9  1  0
  8 10  2  0
  9 57  1  0
  9 58  1  0
  9 59  1  0
 11 21  1  0
 11 12  1  6
 11 13  1  0
 12 60  1  0
 12 61  1  0
 12 62  1  0
 13 14  1  0
 13 15  1  0
 13 16  1  0
 14 63  1  0
 14 64  1  0
 14 65  1  0
 15 66  1  0
 15 67  1  0
 15 68  1  0
 16 23  1  0
 16 17  1  0
 16 69  1  6
 17 18  1  0
 17 19  1  0
 17 70  1  6
 18 71  1  0
 19 20  1  0
 19 72  1  0
 19 73  1  0
 20 21  1  0
 20 74  1  6
 21 22  1  1
 21 23  1  0
 22 75  1  0
 23 24  1  0
 23 76  1  6
 24 25  1  0
 24 26  1  0
 24 77  1  6
 25 78  1  0
 25 79  1  0
 25 80  1  0
 26 43  1  0
 26 45  1  6
 26 27  1  0
 27 41  1  0
 27 28  1  0
 27 81  1  1
 28 29  1  0
 28 82  1  0
 28 83  1  0
 29 30  1  0
 29 31  1  0
 29 84  1  6
 30 85  1  0
 30 86  1  0
 30 87  1  0
 31 32  1  0
 31 88  1  0
 31 89  1  0
 32 45  1  0
 32 33  1  1
 32 34  1  0
 33 90  1  0
 34 35  1  6
 34 36  1  0
 34 45  1  0
 35 91  1  0
 36 37  1  0
 36 38  1  0
 36 92  1  1
 37 93  1  0
 38 39  1  0
 38 40  1  0
 38 94  1  6
 39 95  1  0
 39 96  1  0
 39 97  1  0
 40 41  1  0
 40 43  1  0
 40 98  1  6
 41 42  2  0
 43 44  1  0
 43 99  1  1
 44100  1  0
 45 46  1  6
 46 47  1  0
 47 48  1  0
 47 49  2  0
 48101  1  0
 48102  1  0
 48103  1  0
M  END
>  <i_m_ct_stereo_status>  (50) 
1

>  <s_m_source_file>  (50) 
/var/tmp/pbs.5076255.sched01/tmpn440o9cr/0yczfkg0t.sdf

>  <i_m_source_file_index>  (50) 
22

>  <i_lp_mmshare_version>  (50) 
48012

>  <i_f3d_flags>  (50) 
0

>  <s_epik_input>  (50) 
W0NIM11DKD1PKU9bQ0BASF0xT1tDQF0oW0NIM10pKE9bQ0gzXSlbQ0BASF0oW0NAXTIoW09IXSlbQ0BdMTNbQ0gzXSlbQ0gyXVtDQEhdKFtPSF0pW0NAQEhdKEMzKFtDSDNdKVtDSDNdKVtDQEBIXTJbQ0BIXShbQ0gzXSlbQ0BdNDVbQ0BIXTZbQ0gyXVtDQEBIXShbQ0gzXSlbQ0gyXVtDQF03KFtPSF0pW0NAQF0oW09IXSkoW0NAXTU3T0MoPU8pW0NIM10pW0NAQEhdKFtPSF0pW0NAQEhdKFtDSDNdKVtDQEhdKEM2PU8pW0NASF00W09IXQ==

>  <s_epik_cmdline>  (50) 
J2VwaWtfcHl0aG9uJywgJy1waHQnLCAnMi4wJywgJy1waCcsICc3LjAnLCAnLXRuJywgJzgnLCAnLW1hJywgJzIwMCcsICctaW1hZScsICc8aW5maWxlLm1hZT4nLCAnLW9tYWUnLCAnPG91dGZpbGUubWFlPic=

>  <r_lp_tautomer_probability>  (50) 
1

>  <r_epik_Ionization_Penalty>  (50) 
1.21239e-06

>  <r_epik_Ionization_Penalty_Charging>  (50) 
0

>  <r_epik_Ionization_Penalty_Neutral>  (50) 
1.21239e-06

>  <r_epik_State_Penalty>  (50) 
-0

>  <r_epik_Charging_Adjusted_Penalty>  (50) 
0

>  <i_epik_Tot_Q>  (50) 
0

>  <i_epik_Tot_abs_Q>  (50) 
0

>  <s_epik_Chemistry_Notes>  (50) 
This compound has an ester and may undergo hydrolysis at high or low pH. This compound contains an acetal/aminal-like group ( X-CH(R)-Y where X, Y are N, S, or O) that may be acid/base labile, releasing an aldehyde.

>  <s_lp_Force_Field>  (50) 
OPLS3e

>  <r_lp_Energy>  (50) 
163.396

>  <b_lp_Chiralities_Consistent>  (50) 
1

>  <s_lp_Variant>  (50) 
18:0-1

>  <s_i_glide_gridfile>  (50) 
pfpi4k_grid

>  <i_i_glide_lignum>  (50) 
22

>  <i_i_glide_rotatable_bonds>  (50) 
13

>  <r_i_docking_score>  (50) 
-2.52394

>  <r_i_glide_ligand_efficiency>  (50) 
-0.0515089

>  <r_i_glide_ligand_efficiency_sa>  (50) 
-0.188487

>  <r_i_glide_ligand_efficiency_ln>  (50) 
-0.51595

>  <r_i_glide_gscore>  (50) 
-2.52394

>  <r_i_glide_lipo>  (50) 
-0.0760915

>  <r_i_glide_hbond>  (50) 
-0.116103

>  <r_i_glide_metal>  (50) 
-0

>  <r_i_glide_rewards>  (50) 
-0.0783234

>  <r_i_glide_evdw>  (50) 
-27.4039

>  <r_i_glide_ecoul>  (50) 
-5.63971

>  <r_i_glide_erotb>  (50) 
0.0046085

>  <r_i_glide_esite>  (50) 
-0.0418749

>  <r_i_glide_emodel>  (50) 
-28.3553

>  <r_i_glide_energy>  (50) 
-33.0436

>  <r_i_glide_einternal>  (50) 
14.4588

>  <r_i_glide_intrahb_reward>  (50) 
-0

>  <i_i_glide_confnum>  (50) 
4

>  <i_i_glide_posenum>  (50) 
11

>  <r_i_glide_eff_state_penalty>  (50) 
0

>  <ligand_id>  (50) 
18

>  <original_smiles>  (50) 
COC1(C)OC(OC(C)=O)C2(C)C(C)(C)C3C(O)CC1C2(O)C3C(C)C12C3CC(C)CC4(O)C(O)(C(O)C(C)C(C3=O)C1O)C24OC(C)=O

>  <smiles>  (50) 
[H]OC1([H])C([H])([H])C2([H])C(OC([H])([H])[H])(C([H])([H])[H])OC([H])(OC(=O)C([H])([H])[H])C3(C([H])([H])[H])C2(O[H])C([H])(C([H])(C([H])([H])[H])C24C([H])(O[H])C5([H])C(=O)C2([H])C([H])([H])C([H])(C([H])([H])[H])C([H])([H])C2(O[H])C(O[H])(C([H])(O[H])C5([H])C([H])([H])[H])C24OC(=O)C([H])([H])[H])C1([H])C3(C([H])([H])[H])C([H])([H])[H]

$$$$
18:0:1
     RDKit          3D

103109  0  0  1  0  0  0  0  0999 V2000
    1.3088    5.0497   10.1214 C   0  0  0  0  0  0  0  0  0  0  0  0
    1.0124    4.4015    8.8807 O   0  0  0  0  0  0  0  0  0  0  0  0
    0.9074    5.2331    7.7629 C   0  0  1  0  0  0  0  0  0  0  0  0
   -0.2330    6.2455    7.9626 C   0  0  0  0  0  0  0  0  0  0  0  0
    2.1011    5.9729    7.5417 O   0  0  0  0  0  0  0  0  0  0  0  0
    2.4265    6.3268    6.1952 C   0  0  1  0  0  0  0  0  0  0  0  0
    3.4912    7.2212    6.1600 O   0  0  0  0  0  0  0  0  0  0  0  0
    3.4340    8.3216    6.9407 C   0  0  0  0  0  0  0  0  0  0  0  0
    2.0342    8.8547    7.2858 C   0  0  0  0  0  0  0  0  0  0  0  0
    4.4390    8.8999    7.3539 O   0  0  0  0  0  0  0  0  0  0  0  0
    2.7022    5.0255    5.2563 C   0  0  2  0  0  0  0  0  0  0  0  0
    4.2541    4.8868    5.0758 C   0  0  0  0  0  0  0  0  0  0  0  0
    1.8676    4.9053    3.8648 C   0  0  0  0  0  0  0  0  0  0  0  0
    0.9848    6.1434    3.5090 C   0  0  0  0  0  0  0  0  0  0  0  0
    2.7973    4.7790    2.6243 C   0  0  0  0  0  0  0  0  0  0  0  0
    1.0448    3.5181    3.9499 C   0  0  2  0  0  0  0  0  0  0  0  0
   -0.4494    3.6035    4.5066 C   0  0  1  0  0  0  0  0  0  0  0  0
   -1.2525    2.5603    4.0189 O   0  0  0  0  0  0  0  0  0  0  0  0
   -0.5440    3.6294    6.0841 C   0  0  0  0  0  0  0  0  0  0  0  0
    0.7358    4.3465    6.5275 C   0  0  2  0  0  0  0  0  0  0  0  0
    2.1192    3.7930    5.9976 C   0  0  2  0  0  0  0  0  0  0  0  0
    3.0117    3.3897    7.0231 O   0  0  0  0  0  0  0  0  0  0  0  0
    1.9542    2.7028    4.8996 C   0  0  1  0  0  0  0  0  0  0  0  0
    1.5549    1.2046    5.2444 C   0  0  2  0  0  0  0  0  0  0  0  0
    1.4525    0.8888    6.7756 C   0  0  0  0  0  0  0  0  0  0  0  0
    2.3046    0.0302    4.4834 C   0  0  2  0  0  0  0  0  0  0  0  0
    3.8285    0.1190    4.7950 C   0  0  1  0  0  0  0  0  0  0  0  0
    4.4369   -0.4307    6.0989 C   0  0  0  0  0  0  0  0  0  0  0  0
    4.6731   -1.9368    6.2442 C   0  0  1  0  0  0  0  0  0  0  0  0
    5.6150   -2.1958    7.4319 C   0  0  0  0  0  0  0  0  0  0  0  0
    3.3738   -2.7439    6.4452 C   0  0  0  0  0  0  0  0  0  0  0  0
    2.1235   -2.5948    5.5343 C   0  0  2  0  0  0  0  0  0  0  0  0
    1.1263   -3.3959    6.1219 O   0  0  0  0  0  0  0  0  0  0  0  0
    2.0842   -2.6772    4.0185 C   0  0  2  0  0  0  0  0  0  0  0  0
    1.0156   -3.4675    3.5188 O   0  0  0  0  0  0  0  0  0  0  0  0
    3.3562   -2.9109    3.1752 C   0  0  1  0  0  0  0  0  0  0  0  0
    3.4952   -4.2548    2.7571 O   0  0  0  0  0  0  0  0  0  0  0  0
    3.5420   -1.9571    1.9751 C   0  0  1  0  0  0  0  0  0  0  0  0
    2.6180   -2.2782    0.7876 C   0  0  0  0  0  0  0  0  0  0  0  0
    3.5841   -0.4489    2.3563 C   0  0  2  0  0  0  0  0  0  0  0  0
    4.5651   -0.2358    3.5029 C   0  0  0  0  0  0  0  0  0  0  0  0
    5.7962   -0.3333    3.4028 O   0  0  0  0  0  0  0  0  0  0  0  0
    2.3278    0.2527    2.9264 C   0  0  1  0  0  0  0  0  0  0  0  0
    1.1376   -0.0288    2.2077 O   0  0  0  0  0  0  0  0  0  0  0  0
    1.6190   -1.3756    4.7381 C   0  0  2  0  0  0  0  0  0  0  0  0
    0.1868   -1.2752    4.5121 O   0  0  0  0  0  0  0  0  0  0  0  0
   -0.7439   -1.0508    5.4861 C   0  0  0  0  0  0  0  0  0  0  0  0
   -2.1101   -0.6265    4.9330 C   0  0  0  0  0  0  0  0  0  0  0  0
   -0.5158   -1.1220    6.7000 O   0  0  0  0  0  0  0  0  0  0  0  0
    1.5991    4.3139   10.8607 H   0  0  0  0  0  0  0  0  0  0  0  0
    0.4435    5.5806   10.5244 H   0  0  0  0  0  0  0  0  0  0  0  0
    2.1305    5.7668   10.0388 H   0  0  0  0  0  0  0  0  0  0  0  0
    0.0009    6.9383    8.7725 H   0  0  0  0  0  0  0  0  0  0  0  0
   -1.1541    5.7219    8.2257 H   0  0  0  0  0  0  0  0  0  0  0  0
   -0.3998    6.8308    7.0551 H   0  0  0  0  0  0  0  0  0  0  0  0
    1.5869    6.8858    5.8044 H   0  0  0  0  0  0  0  0  0  0  0  0
    1.4328    8.0760    7.7699 H   0  0  0  0  0  0  0  0  0  0  0  0
    1.5024    9.2087    6.3919 H   0  0  0  0  0  0  0  0  0  0  0  0
    2.0667    9.7002    7.9921 H   0  0  0  0  0  0  0  0  0  0  0  0
    4.5737    3.9469    4.6321 H   0  0  0  0  0  0  0  0  0  0  0  0
    4.7716    4.9571    6.0366 H   0  0  0  0  0  0  0  0  0  0  0  0
    4.6492    5.6931    4.4623 H   0  0  0  0  0  0  0  0  0  0  0  0
    0.4738    5.9845    2.5578 H   0  0  0  0  0  0  0  0  0  0  0  0
    1.6005    7.0364    3.3961 H   0  0  0  0  0  0  0  0  0  0  0  0
    0.2063    6.3906    4.2242 H   0  0  0  0  0  0  0  0  0  0  0  0
    2.2113    4.6869    1.7112 H   0  0  0  0  0  0  0  0  0  0  0  0
    3.4249    3.8940    2.6617 H   0  0  0  0  0  0  0  0  0  0  0  0
    3.4376    5.6556    2.5008 H   0  0  0  0  0  0  0  0  0  0  0  0
    1.0145    3.0664    2.9600 H   0  0  0  0  0  0  0  0  0  0  0  0
   -0.9239    4.5020    4.1067 H   0  0  0  0  0  0  0  0  0  0  0  0
   -1.1636    2.5435    3.0741 H   0  0  0  0  0  0  0  0  0  0  0  0
   -1.4296    4.2136    6.3713 H   0  0  0  0  0  0  0  0  0  0  0  0
   -0.6178    2.6199    6.5214 H   0  0  0  0  0  0  0  0  0  0  0  0
    0.4420    5.1639    5.8838 H   0  0  0  0  0  0  0  0  0  0  0  0
    3.8441    3.1403    6.6314 H   0  0  0  0  0  0  0  0  0  0  0  0
    2.9037    2.6307    4.3896 H   0  0  0  0  0  0  0  0  0  0  0  0
    0.5484    1.1254    4.8887 H   0  0  0  0  0  0  0  0  0  0  0  0
    2.3497    1.1836    7.3477 H   0  0  0  0  0  0  0  0  0  0  0  0
    1.3154   -0.1838    6.9872 H   0  0  0  0  0  0  0  0  0  0  0  0
    0.6085    1.4106    7.2482 H   0  0  0  0  0  0  0  0  0  0  0  0
    4.0830    1.1721    4.8587 H   0  0  0  0  0  0  0  0  0  0  0  0
    5.4103    0.0560    6.1919 H   0  0  0  0  0  0  0  0  0  0  0  0
    3.9063   -0.0833    6.9757 H   0  0  0  0  0  0  0  0  0  0  0  0
    5.2517   -2.2814    5.4019 H   0  0  0  0  0  0  0  0  0  0  0  0
    5.1655   -1.8541    8.3672 H   0  0  0  0  0  0  0  0  0  0  0  0
    6.5666   -1.6713    7.3054 H   0  0  0  0  0  0  0  0  0  0  0  0
    5.8318   -3.2589    7.5252 H   0  0  0  0  0  0  0  0  0  0  0  0
    3.6507   -3.8001    6.4457 H   0  0  0  0  0  0  0  0  0  0  0  0
    3.0218   -2.5589    7.4643 H   0  0  0  0  0  0  0  0  0  0  0  0
    1.4381   -4.2973    6.1012 H   0  0  0  0  0  0  0  0  0  0  0  0
    0.8454   -3.1478    2.6464 H   0  0  0  0  0  0  0  0  0  0  0  0
    4.2130   -2.8124    3.8056 H   0  0  0  0  0  0  0  0  0  0  0  0
    4.3598   -4.3613    2.3646 H   0  0  0  0  0  0  0  0  0  0  0  0
    4.5414   -2.1853    1.5874 H   0  0  0  0  0  0  0  0  0  0  0  0
    1.5694   -2.2548    1.0711 H   0  0  0  0  0  0  0  0  0  0  0  0
    2.8192   -3.2730    0.3744 H   0  0  0  0  0  0  0  0  0  0  0  0
    2.7798   -1.5580   -0.0158 H   0  0  0  0  0  0  0  0  0  0  0  0
    3.9594    0.0999    1.4899 H   0  0  0  0  0  0  0  0  0  0  0  0
    2.5013    1.3164    2.7229 H   0  0  0  0  0  0  0  0  0  0  0  0
    1.2953    0.0823    1.2720 H   0  0  0  0  0  0  0  0  0  0  0  0
   -2.8154   -1.4379    4.8360 H   0  0  0  0  0  0  0  0  0  0  0  0
   -1.9978   -0.1414    3.9714 H   0  0  0  0  0  0  0  0  0  0  0  0
   -2.5433    0.1075    5.5839 H   0  0  0  0  0  0  0  0  0  0  0  0
  1  2  1  0
  1 50  1  0
  1 51  1  0
  1 52  1  0
  3  2  1  1
  3 20  1  0
  3  4  1  0
  3  5  1  0
  4 53  1  0
  4 54  1  0
  4 55  1  0
  5  6  1  0
  6  7  1  0
  6 11  1  0
  6 56  1  6
  7  8  1  0
  8  9  1  0
  8 10  2  0
  9 57  1  0
  9 58  1  0
  9 59  1  0
 11 21  1  0
 11 12  1  6
 11 13  1  0
 12 60  1  0
 12 61  1  0
 12 62  1  0
 13 14  1  0
 13 15  1  0
 13 16  1  0
 14 63  1  0
 14 64  1  0
 14 65  1  0
 15 66  1  0
 15 67  1  0
 15 68  1  0
 16 23  1  0
 16 17  1  0
 16 69  1  6
 17 18  1  0
 17 19  1  0
 17 70  1  6
 18 71  1  0
 19 20  1  0
 19 72  1  0
 19 73  1  0
 20 21  1  0
 20 74  1  6
 21 22  1  1
 21 23  1  0
 22 75  1  0
 23 24  1  0
 23 76  1  6
 24 25  1  0
 24 26  1  0
 24 77  1  6
 25 78  1  0
 25 79  1  0
 25 80  1  0
 26 43  1  0
 26 45  1  6
 26 27  1  0
 27 41  1  0
 27 28  1  0
 27 81  1  1
 28 29  1  0
 28 82  1  0
 28 83  1  0
 29 30  1  0
 29 31  1  0
 29 84  1  6
 30 85  1  0
 30 86  1  0
 30 87  1  0
 31 32  1  0
 31 88  1  0
 31 89  1  0
 32 45  1  0
 32 33  1  1
 32 34  1  0
 33 90  1  0
 34 35  1  1
 34 36  1  0
 34 45  1  0
 35 91  1  0
 36 37  1  0
 36 38  1  0
 36 92  1  1
 37 93  1  0
 38 39  1  0
 38 40  1  0
 38 94  1  6
 39 95  1  0
 39 96  1  0
 39 97  1  0
 40 41  1  0
 40 43  1  0
 40 98  1  6
 41 42  2  0
 43 44  1  0
 43 99  1  1
 44100  1  0
 45 46  1  1
 46 47  1  0
 47 48  1  0
 47 49  2  0
 48101  1  0
 48102  1  0
 48103  1  0
M  END
>  <i_m_ct_stereo_status>  (51) 
1

>  <s_m_source_file>  (51) 
/var/tmp/pbs.5076255.sched01/tmpn440o9cr/0yczfkg0t.sdf

>  <i_m_source_file_index>  (51) 
22

>  <i_lp_mmshare_version>  (51) 
48012

>  <i_f3d_flags>  (51) 
0

>  <s_epik_input>  (51) 
W0NIM11DKD1PKU9bQ0BASF0xT1tDQF0oW0NIM10pKE9bQ0gzXSlbQ0BASF0oW0NAXTIoW09IXSlbQ0BdMTNbQ0gzXSlbQ0gyXVtDQEhdKFtPSF0pW0NAQEhdKEMzKFtDSDNdKVtDSDNdKVtDQEBIXTJbQ0BIXShbQ0gzXSlbQ0BdNDVbQ0BIXTZbQ0gyXVtDQEBIXShbQ0gzXSlbQ0gyXVtDQF03KFtPSF0pW0NAQF0oW09IXSkoW0NAXTU3T0MoPU8pW0NIM10pW0NAQEhdKFtPSF0pW0NAQEhdKFtDSDNdKVtDQEhdKEM2PU8pW0NASF00W09IXQ==

>  <s_epik_cmdline>  (51) 
J2VwaWtfcHl0aG9uJywgJy1waHQnLCAnMi4wJywgJy1waCcsICc3LjAnLCAnLXRuJywgJzgnLCAnLW1hJywgJzIwMCcsICctaW1hZScsICc8aW5maWxlLm1hZT4nLCAnLW9tYWUnLCAnPG91dGZpbGUubWFlPic=

>  <r_lp_tautomer_probability>  (51) 
1

>  <r_epik_Ionization_Penalty>  (51) 
1.21239e-06

>  <r_epik_Ionization_Penalty_Charging>  (51) 
0

>  <r_epik_Ionization_Penalty_Neutral>  (51) 
1.21239e-06

>  <r_epik_State_Penalty>  (51) 
-0

>  <r_epik_Charging_Adjusted_Penalty>  (51) 
0

>  <i_epik_Tot_Q>  (51) 
0

>  <i_epik_Tot_abs_Q>  (51) 
0

>  <s_epik_Chemistry_Notes>  (51) 
This compound has an ester and may undergo hydrolysis at high or low pH. This compound contains an acetal/aminal-like group ( X-CH(R)-Y where X, Y are N, S, or O) that may be acid/base labile, releasing an aldehyde.

>  <s_lp_Force_Field>  (51) 
OPLS3e

>  <r_lp_Energy>  (51) 
163.396

>  <b_lp_Chiralities_Consistent>  (51) 
1

>  <s_lp_Variant>  (51) 
18:0-1

>  <s_i_glide_gridfile>  (51) 
pfpi4k_grid

>  <i_i_glide_lignum>  (51) 
22

>  <i_i_glide_rotatable_bonds>  (51) 
13

>  <r_i_docking_score>  (51) 
-2.33797

>  <r_i_glide_ligand_efficiency>  (51) 
-0.0477136

>  <r_i_glide_ligand_efficiency_sa>  (51) 
-0.174599

>  <r_i_glide_ligand_efficiency_ln>  (51) 
-0.477934

>  <r_i_glide_gscore>  (51) 
-2.33797

>  <r_i_glide_lipo>  (51) 
-0.0644313

>  <r_i_glide_hbond>  (51) 
-0.0186491

>  <r_i_glide_metal>  (51) 
-0

>  <r_i_glide_rewards>  (51) 
-0.0921269

>  <r_i_glide_evdw>  (51) 
-29.5514

>  <r_i_glide_ecoul>  (51) 
-4.33464

>  <r_i_glide_erotb>  (51) 
0.0046085

>  <r_i_glide_esite>  (51) 
-0.0396016

>  <r_i_glide_emodel>  (51) 
-30.2878

>  <r_i_glide_energy>  (51) 
-33.8861

>  <r_i_glide_einternal>  (51) 
14.3623

>  <r_i_glide_intrahb_reward>  (51) 
-0

>  <i_i_glide_confnum>  (51) 
1

>  <i_i_glide_posenum>  (51) 
18

>  <r_i_glide_eff_state_penalty>  (51) 
0

>  <ligand_id>  (51) 
18

>  <original_smiles>  (51) 
COC1(C)OC(OC(C)=O)C2(C)C(C)(C)C3C(O)CC1C2(O)C3C(C)C12C3CC(C)CC4(O)C(O)(C(O)C(C)C(C3=O)C1O)C24OC(C)=O

>  <smiles>  (51) 
[H]OC1([H])C([H])([H])C2([H])C(OC([H])([H])[H])(C([H])([H])[H])OC([H])(OC(=O)C([H])([H])[H])C3(C([H])([H])[H])C2(O[H])C([H])(C([H])(C([H])([H])[H])C24C([H])(O[H])C5([H])C(=O)C2([H])C([H])([H])C([H])(C([H])([H])[H])C([H])([H])C2(O[H])C(O[H])(C([H])(O[H])C5([H])C([H])([H])[H])C24OC(=O)C([H])([H])[H])C1([H])C3(C([H])([H])[H])C([H])([H])[H]

$$$$
18:0:2
     RDKit          3D

103109  0  0  1  0  0  0  0  0999 V2000
   -1.2327    2.3762    9.4357 C   0  0  0  0  0  0  0  0  0  0  0  0
   -0.9519    3.2458    8.3390 O   0  0  0  0  0  0  0  0  0  0  0  0
   -1.4623    2.9661    7.0595 C   0  0  1  0  0  0  0  0  0  0  0  0
   -3.0043    2.9493    7.1202 C   0  0  0  0  0  0  0  0  0  0  0  0
   -1.1055    4.0094    6.1425 O   0  0  0  0  0  0  0  0  0  0  0  0
   -1.0174    3.6452    4.7548 C   0  0  1  0  0  0  0  0  0  0  0  0
   -0.8758    4.7737    3.9324 O   0  0  0  0  0  0  0  0  0  0  0  0
   -1.7453    4.8978    2.9269 C   0  0  0  0  0  0  0  0  0  0  0  0
   -1.3928    6.1404    2.0515 C   0  0  0  0  0  0  0  0  0  0  0  0
   -2.7601    4.2431    2.7201 O   0  0  0  0  0  0  0  0  0  0  0  0
    0.1917    2.6027    4.4798 C   0  0  2  0  0  0  0  0  0  0  0  0
    1.4012    3.4096    3.8840 C   0  0  0  0  0  0  0  0  0  0  0  0
   -0.1857    1.2793    3.6386 C   0  0  0  0  0  0  0  0  0  0  0  0
   -1.6202    1.2263    3.0908 C   0  0  0  0  0  0  0  0  0  0  0  0
    0.6663    1.1341    2.3464 C   0  0  0  0  0  0  0  0  0  0  0  0
    0.1678    0.0220    4.5664 C   0  0  2  0  0  0  0  0  0  0  0  0
   -0.9675   -0.5546    5.5213 C   0  0  1  0  0  0  0  0  0  0  0  0
   -0.7843   -1.9159    5.8571 O   0  0  0  0  0  0  0  0  0  0  0  0
   -1.1540    0.2650    6.8403 C   0  0  0  0  0  0  0  0  0  0  0  0
   -0.8160    1.6893    6.4808 C   0  0  2  0  0  0  0  0  0  0  0  0
    0.5770    1.9449    5.8275 C   0  0  2  0  0  0  0  0  0  0  0  0
    1.3773    2.8340    6.5848 O   0  0  0  0  0  0  0  0  0  0  0  0
    1.3190    0.6279    5.4175 C   0  0  1  0  0  0  0  0  0  0  0  0
    2.0490   -0.2987    6.4897 C   0  0  2  0  0  0  0  0  0  0  0  0
    2.4477    0.4541    7.7747 C   0  0  0  0  0  0  0  0  0  0  0  0
    3.2472   -1.2278    6.0002 C   0  0  2  0  0  0  0  0  0  0  0  0
    4.3922   -0.3326    5.4320 C   0  0  1  0  0  0  0  0  0  0  0  0
    5.4263    0.3641    6.3406 C   0  0  0  0  0  0  0  0  0  0  0  0
    6.5782   -0.4598    6.9145 C   0  0  1  0  0  0  0  0  0  0  0  0
    7.6609    0.4896    7.4581 C   0  0  0  0  0  0  0  0  0  0  0  0
    6.1508   -1.4302    8.0422 C   0  0  0  0  0  0  0  0  0  0  0  0
    4.9700   -2.4213    7.9039 C   0  0  2  0  0  0  0  0  0  0  0  0
    4.8208   -3.0354    9.1609 O   0  0  0  0  0  0  0  0  0  0  0  0
    4.7055   -3.4100    6.7810 C   0  0  2  0  0  0  0  0  0  0  0  0
    4.3105   -4.7113    7.1974 O   0  0  0  0  0  0  0  0  0  0  0  0
    5.6716   -3.5505    5.5956 C   0  0  1  0  0  0  0  0  0  0  0  0
    6.5564   -4.6503    5.7763 O   0  0  0  0  0  0  0  0  0  0  0  0
    5.0047   -3.5753    4.2015 C   0  0  1  0  0  0  0  0  0  0  0  0
    4.2886   -4.8980    3.8622 C   0  0  0  0  0  0  0  0  0  0  0  0
    4.1582   -2.3079    3.8928 C   0  0  2  0  0  0  0  0  0  0  0  0
    4.9246   -1.0239    4.1804 C   0  0  0  0  0  0  0  0  0  0  0  0
    5.7641   -0.5455    3.4272 O   0  0  0  0  0  0  0  0  0  0  0  0
    2.8793   -2.0159    4.6987 C   0  0  1  0  0  0  0  0  0  0  0  0
    1.9891   -3.1063    4.8501 O   0  0  0  0  0  0  0  0  0  0  0  0
    3.6598   -2.2933    7.1006 C   0  0  2  0  0  0  0  0  0  0  0  0
    2.4942   -2.9749    7.6399 O   0  0  0  0  0  0  0  0  0  0  0  0
    1.8490   -2.6624    8.7906 C   0  0  0  0  0  0  0  0  0  0  0  0
    0.6105   -3.5318    9.0475 C   0  0  0  0  0  0  0  0  0  0  0  0
    2.1696   -1.7773    9.5847 O   0  0  0  0  0  0  0  0  0  0  0  0
   -0.7816    2.7785   10.3445 H   0  0  0  0  0  0  0  0  0  0  0  0
   -0.7876    1.3984    9.2868 H   0  0  0  0  0  0  0  0  0  0  0  0
   -2.3007    2.2583    9.6209 H   0  0  0  0  0  0  0  0  0  0  0  0
   -3.3318    3.9329    7.4645 H   0  0  0  0  0  0  0  0  0  0  0  0
   -3.3831    2.1937    7.8176 H   0  0  0  0  0  0  0  0  0  0  0  0
   -3.4242    2.7663    6.1266 H   0  0  0  0  0  0  0  0  0  0  0  0
   -1.9955    3.1999    4.5789 H   0  0  0  0  0  0  0  0  0  0  0  0
   -0.3437    6.1499    1.7539 H   0  0  0  0  0  0  0  0  0  0  0  0
   -1.5657    7.0747    2.5612 H   0  0  0  0  0  0  0  0  0  0  0  0
   -2.0040    6.1357    1.1540 H   0  0  0  0  0  0  0  0  0  0  0  0
    2.3240    2.8381    3.7960 H   0  0  0  0  0  0  0  0  0  0  0  0
    1.6384    4.2883    4.4888 H   0  0  0  0  0  0  0  0  0  0  0  0
    1.1743    3.7793    2.8828 H   0  0  0  0  0  0  0  0  0  0  0  0
   -1.7473    0.2803    2.5762 H   0  0  0  0  0  0  0  0  0  0  0  0
   -1.8044    2.0062    2.3554 H   0  0  0  0  0  0  0  0  0  0  0  0
   -2.4031    1.2908    3.8376 H   0  0  0  0  0  0  0  0  0  0  0  0
    0.3915    0.2302    1.8002 H   0  0  0  0  0  0  0  0  0  0  0  0
    1.7363    1.0579    2.5354 H   0  0  0  0  0  0  0  0  0  0  0  0
    0.4962    1.9650    1.6590 H   0  0  0  0  0  0  0  0  0  0  0  0
    0.4410   -0.7984    3.9009 H   0  0  0  0  0  0  0  0  0  0  0  0
   -1.9164   -0.5530    4.9836 H   0  0  0  0  0  0  0  0  0  0  0  0
    0.1443   -2.0746    5.9840 H   0  0  0  0  0  0  0  0  0  0  0  0
   -2.1979    0.2379    7.1303 H   0  0  0  0  0  0  0  0  0  0  0  0
   -0.5264   -0.1020    7.6502 H   0  0  0  0  0  0  0  0  0  0  0  0
   -1.5585    1.5966    5.6963 H   0  0  0  0  0  0  0  0  0  0  0  0
    2.1750    3.0062    6.1044 H   0  0  0  0  0  0  0  0  0  0  0  0
    2.0853    0.9237    4.7149 H   0  0  0  0  0  0  0  0  0  0  0  0
    1.3042   -1.0054    6.8101 H   0  0  0  0  0  0  0  0  0  0  0  0
    2.9457    1.4011    7.5720 H   0  0  0  0  0  0  0  0  0  0  0  0
    3.0852   -0.1201    8.4228 H   0  0  0  0  0  0  0  0  0  0  0  0
    1.5708    0.6934    8.3578 H   0  0  0  0  0  0  0  0  0  0  0  0
    3.9419    0.5225    4.9419 H   0  0  0  0  0  0  0  0  0  0  0  0
    5.8683    1.1548    5.7272 H   0  0  0  0  0  0  0  0  0  0  0  0
    4.9457    0.9053    7.1472 H   0  0  0  0  0  0  0  0  0  0  0  0
    7.0829   -0.9558    6.0812 H   0  0  0  0  0  0  0  0  0  0  0  0
    7.2705    1.1023    8.2748 H   0  0  0  0  0  0  0  0  0  0  0  0
    8.0291    1.1649    6.6791 H   0  0  0  0  0  0  0  0  0  0  0  0
    8.5171   -0.0736    7.8361 H   0  0  0  0  0  0  0  0  0  0  0  0
    7.0338   -2.0159    8.3071 H   0  0  0  0  0  0  0  0  0  0  0  0
    5.9405   -0.8310    8.9352 H   0  0  0  0  0  0  0  0  0  0  0  0
    5.5948   -3.5458    9.3327 H   0  0  0  0  0  0  0  0  0  0  0  0
    5.1036   -5.1678    7.4388 H   0  0  0  0  0  0  0  0  0  0  0  0
    6.3514   -2.7272    5.6222 H   0  0  0  0  0  0  0  0  0  0  0  0
    6.0880   -5.4613    5.6255 H   0  0  0  0  0  0  0  0  0  0  0  0
    5.8082   -3.5336    3.4675 H   0  0  0  0  0  0  0  0  0  0  0  0
    3.5298   -5.1655    4.5970 H   0  0  0  0  0  0  0  0  0  0  0  0
    5.0041   -5.7203    3.8153 H   0  0  0  0  0  0  0  0  0  0  0  0
    3.8095   -4.8331    2.8828 H   0  0  0  0  0  0  0  0  0  0  0  0
    3.9249   -2.3146    2.8253 H   0  0  0  0  0  0  0  0  0  0  0  0
    2.3756   -1.3354    4.0234 H   0  0  0  0  0  0  0  0  0  0  0  0
    2.4418   -3.7969    5.3205 H   0  0  0  0  0  0  0  0  0  0  0  0
    0.8469   -4.3884    9.6758 H   0  0  0  0  0  0  0  0  0  0  0  0
    0.1532   -3.9098    8.1298 H   0  0  0  0  0  0  0  0  0  0  0  0
   -0.1588   -2.9702    9.5649 H   0  0  0  0  0  0  0  0  0  0  0  0
  1  2  1  0
  1 50  1  0
  1 51  1  0
  1 52  1  0
  3  2  1  1
  3 20  1  0
  3  4  1  0
  3  5  1  0
  4 53  1  0
  4 54  1  0
  4 55  1  0
  5  6  1  0
  6  7  1  0
  6 11  1  0
  6 56  1  6
  7  8  1  0
  8  9  1  0
  8 10  2  0
  9 57  1  0
  9 58  1  0
  9 59  1  0
 11 21  1  0
 11 12  1  6
 11 13  1  0
 12 60  1  0
 12 61  1  0
 12 62  1  0
 13 14  1  0
 13 15  1  0
 13 16  1  0
 14 63  1  0
 14 64  1  0
 14 65  1  0
 15 66  1  0
 15 67  1  0
 15 68  1  0
 16 23  1  0
 16 17  1  0
 16 69  1  6
 17 18  1  0
 17 19  1  0
 17 70  1  6
 18 71  1  0
 19 20  1  0
 19 72  1  0
 19 73  1  0
 20 21  1  0
 20 74  1  6
 21 22  1  1
 21 23  1  0
 22 75  1  0
 23 24  1  0
 23 76  1  6
 24 25  1  0
 24 26  1  0
 24 77  1  1
 25 78  1  0
 25 79  1  0
 25 80  1  0
 26 43  1  0
 26 45  1  1
 26 27  1  0
 27 41  1  0
 27 28  1  0
 27 81  1  6
 28 29  1  0
 28 82  1  0
 28 83  1  0
 29 30  1  0
 29 31  1  0
 29 84  1  6
 30 85  1  0
 30 86  1  0
 30 87  1  0
 31 32  1  0
 31 88  1  0
 31 89  1  0
 32 45  1  0
 32 33  1  1
 32 34  1  0
 33 90  1  0
 34 35  1  1
 34 36  1  0
 34 45  1  0
 35 91  1  0
 36 37  1  0
 36 38  1  0
 36 92  1  6
 37 93  1  0
 38 39  1  0
 38 40  1  0
 38 94  1  6
 39 95  1  0
 39 96  1  0
 39 97  1  0
 40 41  1  0
 40 43  1  0
 40 98  1  6
 41 42  2  0
 43 44  1  0
 43 99  1  6
 44100  1  0
 45 46  1  1
 46 47  1  0
 47 48  1  0
 47 49  2  0
 48101  1  0
 48102  1  0
 48103  1  0
M  END
>  <i_m_ct_stereo_status>  (52) 
1

>  <s_m_source_file>  (52) 
/var/tmp/pbs.5076255.sched01/tmpn440o9cr/0yczfkg0t.sdf

>  <i_m_source_file_index>  (52) 
22

>  <i_lp_mmshare_version>  (52) 
48012

>  <i_f3d_flags>  (52) 
0

>  <s_epik_input>  (52) 
W0NIM11DKD1PKU9bQ0BASF0xT1tDQF0oW0NIM10pKE9bQ0gzXSlbQ0BASF0oW0NAXTIoW09IXSlbQ0BdMTNbQ0gzXSlbQ0gyXVtDQEhdKFtPSF0pW0NAQEhdKEMzKFtDSDNdKVtDSDNdKVtDQEBIXTJbQ0BIXShbQ0gzXSlbQ0BdNDVbQ0BIXTZbQ0gyXVtDQEBIXShbQ0gzXSlbQ0gyXVtDQF03KFtPSF0pW0NAQF0oW09IXSkoW0NAXTU3T0MoPU8pW0NIM10pW0NAQEhdKFtPSF0pW0NAQEhdKFtDSDNdKVtDQEhdKEM2PU8pW0NASF00W09IXQ==

>  <s_epik_cmdline>  (52) 
J2VwaWtfcHl0aG9uJywgJy1waHQnLCAnMi4wJywgJy1waCcsICc3LjAnLCAnLXRuJywgJzgnLCAnLW1hJywgJzIwMCcsICctaW1hZScsICc8aW5maWxlLm1hZT4nLCAnLW9tYWUnLCAnPG91dGZpbGUubWFlPic=

>  <r_lp_tautomer_probability>  (52) 
1

>  <r_epik_Ionization_Penalty>  (52) 
1.21239e-06

>  <r_epik_Ionization_Penalty_Charging>  (52) 
0

>  <r_epik_Ionization_Penalty_Neutral>  (52) 
1.21239e-06

>  <r_epik_State_Penalty>  (52) 
-0

>  <r_epik_Charging_Adjusted_Penalty>  (52) 
0

>  <i_epik_Tot_Q>  (52) 
0

>  <i_epik_Tot_abs_Q>  (52) 
0

>  <s_epik_Chemistry_Notes>  (52) 
This compound has an ester and may undergo hydrolysis at high or low pH. This compound contains an acetal/aminal-like group ( X-CH(R)-Y where X, Y are N, S, or O) that may be acid/base labile, releasing an aldehyde.

>  <s_lp_Force_Field>  (52) 
OPLS3e

>  <r_lp_Energy>  (52) 
163.396

>  <b_lp_Chiralities_Consistent>  (52) 
1

>  <s_lp_Variant>  (52) 
18:0-1

>  <s_i_glide_gridfile>  (52) 
pfpi4k_grid

>  <i_i_glide_lignum>  (52) 
22

>  <i_i_glide_rotatable_bonds>  (52) 
13

>  <r_i_docking_score>  (52) 
-2.17979

>  <r_i_glide_ligand_efficiency>  (52) 
-0.0444855

>  <r_i_glide_ligand_efficiency_sa>  (52) 
-0.162786

>  <r_i_glide_ligand_efficiency_ln>  (52) 
-0.445599

>  <r_i_glide_gscore>  (52) 
-2.17979

>  <r_i_glide_lipo>  (52) 
-0.38339

>  <r_i_glide_hbond>  (52) 
-0.0867976

>  <r_i_glide_metal>  (52) 
-0

>  <r_i_glide_rewards>  (52) 
-0.622376

>  <r_i_glide_evdw>  (52) 
-19.7314

>  <r_i_glide_ecoul>  (52) 
0.180908

>  <r_i_glide_erotb>  (52) 
0.0046085

>  <r_i_glide_esite>  (52) 
-0.132399

>  <r_i_glide_emodel>  (52) 
-24.3323

>  <r_i_glide_energy>  (52) 
-19.5505

>  <r_i_glide_einternal>  (52) 
8.23241

>  <r_i_glide_intrahb_reward>  (52) 
-0.5

>  <i_i_glide_confnum>  (52) 
4

>  <i_i_glide_posenum>  (52) 
8

>  <r_i_glide_eff_state_penalty>  (52) 
0

>  <ligand_id>  (52) 
18

>  <original_smiles>  (52) 
COC1(C)OC(OC(C)=O)C2(C)C(C)(C)C3C(O)CC1C2(O)C3C(C)C12C3CC(C)CC4(O)C(O)(C(O)C(C)C(C3=O)C1O)C24OC(C)=O

>  <smiles>  (52) 
[H]OC1([H])C([H])([H])C2([H])C(OC([H])([H])[H])(C([H])([H])[H])OC([H])(OC(=O)C([H])([H])[H])C3(C([H])([H])[H])C2(O[H])C([H])(C([H])(C([H])([H])[H])C24C([H])(O[H])C5([H])C(=O)C2([H])C([H])([H])C([H])(C([H])([H])[H])C([H])([H])C2(O[H])C(O[H])(C([H])(O[H])C5([H])C([H])([H])[H])C24OC(=O)C([H])([H])[H])C1([H])C3(C([H])([H])[H])C([H])([H])[H]

$$$$
18:1:0
     RDKit          3D

103109  0  0  1  0  0  0  0  0999 V2000
    3.7159   -5.8377    7.4064 C   0  0  0  0  0  0  0  0  0  0  0  0
    3.3839   -4.4756    7.0898 O   0  0  0  0  0  0  0  0  0  0  0  0
    4.2420   -3.7020    6.2805 C   0  0  1  0  0  0  0  0  0  0  0  0
    5.7065   -3.8524    6.7857 C   0  0  0  0  0  0  0  0  0  0  0  0
    4.2825   -4.1199    4.9370 O   0  0  0  0  0  0  0  0  0  0  0  0
    3.0444   -4.2033    4.2534 C   0  0  1  0  0  0  0  0  0  0  0  0
    2.2899   -5.2760    4.7236 O   0  0  0  0  0  0  0  0  0  0  0  0
    2.7539   -6.5222    4.5348 C   0  0  0  0  0  0  0  0  0  0  0  0
    4.1276   -6.6717    3.8574 C   0  0  0  0  0  0  0  0  0  0  0  0
    2.1376   -7.5356    4.8726 O   0  0  0  0  0  0  0  0  0  0  0  0
    2.2453   -2.8324    4.1976 C   0  0  2  0  0  0  0  0  0  0  0  0
    0.7622   -3.2049    3.8456 C   0  0  0  0  0  0  0  0  0  0  0  0
    2.8688   -1.8386    3.1188 C   0  0  0  0  0  0  0  0  0  0  0  0
    4.1037   -2.3726    2.3292 C   0  0  0  0  0  0  0  0  0  0  0  0
    1.8721   -1.4213    1.9980 C   0  0  0  0  0  0  0  0  0  0  0  0
    3.1758   -0.5406    3.9430 C   0  0  2  0  0  0  0  0  0  0  0  0
    4.6286   -0.4796    4.5151 C   0  0  1  0  0  0  0  0  0  0  0  0
    5.0339    0.8579    4.6781 O   0  0  0  0  0  0  0  0  0  0  0  0
    4.8164   -1.1819    5.8795 C   0  0  0  0  0  0  0  0  0  0  0  0
    3.7294   -2.2159    6.3068 C   0  0  1  0  0  0  0  0  0  0  0  0
    2.3340   -2.0470    5.5641 C   0  0  2  0  0  0  0  0  0  0  0  0
    1.3099   -2.4736    6.4466 O   0  0  0  0  0  0  0  0  0  0  0  0
    2.0859   -0.5779    5.0681 C   0  0  1  0  0  0  0  0  0  0  0  0
    2.0183    0.6391    6.0759 C   0  0  2  0  0  0  0  0  0  0  0  0
    1.4098    0.2568    7.4499 C   0  0  0  0  0  0  0  0  0  0  0  0
    1.3973    2.0225    5.5643 C   0  0  2  0  0  0  0  0  0  0  0  0
   -0.1122    1.8207    5.1979 C   0  0  1  0  0  0  0  0  0  0  0  0
   -1.2192    1.8250    6.2623 C   0  0  0  0  0  0  0  0  0  0  0  0
   -1.6826    3.1629    6.8485 C   0  0  1  0  0  0  0  0  0  0  0  0
   -3.0019    2.9551    7.6103 C   0  0  0  0  0  0  0  0  0  0  0  0
   -0.6569    3.8122    7.8053 C   0  0  0  0  0  0  0  0  0  0  0  0
    0.8417    4.0532    7.4537 C   0  0  2  0  0  0  0  0  0  0  0  0
    1.4253    4.5543    8.6229 O   0  0  0  0  0  0  0  0  0  0  0  0
    1.4007    4.6998    6.1981 C   0  0  2  0  0  0  0  0  0  0  0  0
    2.4600    5.6218    6.4394 O   0  0  0  0  0  0  0  0  0  0  0  0
    0.4985    5.2267    5.0626 C   0  0  1  0  0  0  0  0  0  0  0  0
    0.2750    6.6330    5.1234 O   0  0  0  0  0  0  0  0  0  0  0  0
    0.8820    4.8055    3.6240 C   0  0  1  0  0  0  0  0  0  0  0  0
    2.1463    5.5138    3.0859 C   0  0  0  0  0  0  0  0  0  0  0  0
    0.8855    3.2731    3.4132 C   0  0  2  0  0  0  0  0  0  0  0  0
   -0.4069    2.6448    3.9382 C   0  0  0  0  0  0  0  0  0  0  0  0
   -1.5210    2.7861    3.4358 O   0  0  0  0  0  0  0  0  0  0  0  0
    1.9202    2.3981    4.1324 C   0  0  1  0  0  0  0  0  0  0  0  0
    3.2474    2.8906    4.0676 O   0  0  0  0  0  0  0  0  0  0  0  0
    1.7649    3.2146    6.5450 C   0  0  2  0  0  0  0  0  0  0  0  0
    3.1869    3.2041    6.8871 O   0  0  0  0  0  0  0  0  0  0  0  0
    3.7399    2.6564    8.0004 C   0  0  0  0  0  0  0  0  0  0  0  0
    5.2704    2.7393    7.9977 C   0  0  0  0  0  0  0  0  0  0  0  0
    3.1362    2.1159    8.9285 O   0  0  0  0  0  0  0  0  0  0  0  0
    2.8389   -6.2733    7.8891 H   0  0  0  0  0  0  0  0  0  0  0  0
    4.5230   -5.8831    8.1624 H   0  0  0  0  0  0  0  0  0  0  0  0
    3.9362   -6.4013    6.5179 H   0  0  0  0  0  0  0  0  0  0  0  0
    5.9564   -4.9034    6.9332 H   0  0  0  0  0  0  0  0  0  0  0  0
    5.8365   -3.3134    7.7176 H   0  0  0  0  0  0  0  0  0  0  0  0
    6.4182   -3.4773    6.0387 H   0  0  0  0  0  0  0  0  0  0  0  0
    3.2456   -4.4571    3.2151 H   0  0  0  0  0  0  0  0  0  0  0  0
    4.8774   -6.1586    4.4693 H   0  0  0  0  0  0  0  0  0  0  0  0
    4.1498   -6.2382    2.8386 H   0  0  0  0  0  0  0  0  0  0  0  0
    4.4364   -7.7259    3.7778 H   0  0  0  0  0  0  0  0  0  0  0  0
    0.0856   -2.3510    3.7520 H   0  0  0  0  0  0  0  0  0  0  0  0
    0.2801   -3.8534    4.5903 H   0  0  0  0  0  0  0  0  0  0  0  0
    0.7314   -3.7596    2.9050 H   0  0  0  0  0  0  0  0  0  0  0  0
    4.5328   -1.5639    1.7383 H   0  0  0  0  0  0  0  0  0  0  0  0
    3.8359   -3.1557    1.6259 H   0  0  0  0  0  0  0  0  0  0  0  0
    4.9078   -2.7600    2.9524 H   0  0  0  0  0  0  0  0  0  0  0  0
    2.3507   -0.7159    1.3164 H   0  0  0  0  0  0  0  0  0  0  0  0
    0.9818   -0.9173    2.3728 H   0  0  0  0  0  0  0  0  0  0  0  0
    1.5666   -2.2689    1.3875 H   0  0  0  0  0  0  0  0  0  0  0  0
    3.1088    0.2676    3.2370 H   0  0  0  0  0  0  0  0  0  0  0  0
    5.3605   -0.8757    3.8140 H   0  0  0  0  0  0  0  0  0  0  0  0
    4.7527    1.3464    3.9241 H   0  0  0  0  0  0  0  0  0  0  0  0
    5.8397   -1.5292    5.9100 H   0  0  0  0  0  0  0  0  0  0  0  0
    4.8282   -0.4110    6.6519 H   0  0  0  0  0  0  0  0  0  0  0  0
    3.5671   -1.9899    7.3685 H   0  0  0  0  0  0  0  0  0  0  0  0
    1.4580   -2.0663    7.3017 H   0  0  0  0  0  0  0  0  0  0  0  0
    1.1133   -0.6116    4.6010 H   0  0  0  0  0  0  0  0  0  0  0  0
    3.0584    0.8442    6.2855 H   0  0  0  0  0  0  0  0  0  0  0  0
    0.5109   -0.3567    7.3772 H   0  0  0  0  0  0  0  0  0  0  0  0
    1.1161    1.1296    8.0375 H   0  0  0  0  0  0  0  0  0  0  0  0
    2.1193   -0.2835    8.0694 H   0  0  0  0  0  0  0  0  0  0  0  0
   -0.1967    0.8316    4.7766 H   0  0  0  0  0  0  0  0  0  0  0  0
   -2.0939    1.3732    5.7708 H   0  0  0  0  0  0  0  0  0  0  0  0
   -1.0067    1.1360    7.0753 H   0  0  0  0  0  0  0  0  0  0  0  0
   -1.9594    3.8174    6.0435 H   0  0  0  0  0  0  0  0  0  0  0  0
   -2.8646    2.2660    8.4460 H   0  0  0  0  0  0  0  0  0  0  0  0
   -3.7824    2.5477    6.9591 H   0  0  0  0  0  0  0  0  0  0  0  0
   -3.3631    3.8982    8.0110 H   0  0  0  0  0  0  0  0  0  0  0  0
   -1.0508    4.7811    8.1007 H   0  0  0  0  0  0  0  0  0  0  0  0
   -0.6401    3.2250    8.7275 H   0  0  0  0  0  0  0  0  0  0  0  0
    2.3363    4.7642    8.3729 H   0  0  0  0  0  0  0  0  0  0  0  0
    2.9346    5.7105    5.6247 H   0  0  0  0  0  0  0  0  0  0  0  0
   -0.5016    4.8746    5.2408 H   0  0  0  0  0  0  0  0  0  0  0  0
    0.9912    7.0716    4.6669 H   0  0  0  0  0  0  0  0  0  0  0  0
    0.0820    5.1895    2.9775 H   0  0  0  0  0  0  0  0  0  0  0  0
    3.0252    5.3763    3.7185 H   0  0  0  0  0  0  0  0  0  0  0  0
    1.9846    6.5965    3.0017 H   0  0  0  0  0  0  0  0  0  0  0  0
    2.3937    5.1473    2.0858 H   0  0  0  0  0  0  0  0  0  0  0  0
    0.9709    3.0861    2.3494 H   0  0  0  0  0  0  0  0  0  0  0  0
    1.8908    1.5139    3.5288 H   0  0  0  0  0  0  0  0  0  0  0  0
    3.4945    2.9506    3.1452 H   0  0  0  0  0  0  0  0  0  0  0  0
    5.5991    3.7579    8.2228 H   0  0  0  0  0  0  0  0  0  0  0  0
    5.6897    2.4215    7.0408 H   0  0  0  0  0  0  0  0  0  0  0  0
    5.6684    2.0816    8.7653 H   0  0  0  0  0  0  0  0  0  0  0  0
  1  2  1  0
  1 50  1  0
  1 51  1  0
  1 52  1  0
  3  2  1  1
  3 20  1  0
  3  4  1  0
  3  5  1  0
  4 53  1  0
  4 54  1  0
  4 55  1  0
  5  6  1  0
  6  7  1  0
  6 11  1  0
  6 56  1  6
  7  8  1  0
  8  9  1  0
  8 10  2  0
  9 57  1  0
  9 58  1  0
  9 59  1  0
 11 21  1  0
 11 12  1  6
 11 13  1  0
 12 60  1  0
 12 61  1  0
 12 62  1  0
 13 14  1  0
 13 15  1  0
 13 16  1  0
 14 63  1  0
 14 64  1  0
 14 65  1  0
 15 66  1  0
 15 67  1  0
 15 68  1  0
 16 23  1  0
 16 17  1  0
 16 69  1  6
 17 18  1  0
 17 19  1  0
 17 70  1  6
 18 71  1  0
 19 20  1  0
 19 72  1  0
 19 73  1  0
 20 21  1  0
 20 74  1  1
 21 22  1  1
 21 23  1  0
 22 75  1  0
 23 24  1  0
 23 76  1  6
 24 25  1  0
 24 26  1  0
 24 77  1  1
 25 78  1  0
 25 79  1  0
 25 80  1  0
 26 43  1  0
 26 45  1  1
 26 27  1  0
 27 41  1  0
 27 28  1  0
 27 81  1  6
 28 29  1  0
 28 82  1  0
 28 83  1  0
 29 30  1  0
 29 31  1  0
 29 84  1  6
 30 85  1  0
 30 86  1  0
 30 87  1  0
 31 32  1  0
 31 88  1  0
 31 89  1  0
 32 45  1  0
 32 33  1  1
 32 34  1  0
 33 90  1  0
 34 35  1  1
 34 36  1  0
 34 45  1  0
 35 91  1  0
 36 37  1  0
 36 38  1  0
 36 92  1  1
 37 93  1  0
 38 39  1  0
 38 40  1  0
 38 94  1  6
 39 95  1  0
 39 96  1  0
 39 97  1  0
 40 41  1  0
 40 43  1  0
 40 98  1  6
 41 42  2  0
 43 44  1  0
 43 99  1  6
 44100  1  0
 45 46  1  1
 46 47  1  0
 47 48  1  0
 47 49  2  0
 48101  1  0
 48102  1  0
 48103  1  0
M  END
>  <i_m_ct_stereo_status>  (53) 
1

>  <s_m_source_file>  (53) 
/var/tmp/pbs.5076255.sched01/tmpn440o9cr/0yczfkg0t.sdf

>  <i_m_source_file_index>  (53) 
23

>  <i_lp_mmshare_version>  (53) 
48012

>  <i_f3d_flags>  (53) 
0

>  <s_epik_input>  (53) 
W0NIM11DKD1PKU9bQ0BASF0xT1tDQF0oW0NIM10pKE9bQ0gzXSlbQ0BASF0oW0NAXTIoW09IXSlbQ0BdMTNbQ0gzXSlbQ0gyXVtDQEhdKFtPSF0pW0NAQEhdKEMzKFtDSDNdKVtDSDNdKVtDQEBIXTJbQ0BIXShbQ0gzXSlbQ0BdNDVbQ0BIXTZbQ0gyXVtDQEBIXShbQ0gzXSlbQ0gyXVtDQF03KFtPSF0pW0NAQF0oW09IXSkoW0NAXTU3T0MoPU8pW0NIM10pW0NAQEhdKFtPSF0pW0NAQEhdKFtDSDNdKVtDQEhdKEM2PU8pW0NASF00W09IXQ==

>  <s_epik_cmdline>  (53) 
J2VwaWtfcHl0aG9uJywgJy1waHQnLCAnMi4wJywgJy1waCcsICc3LjAnLCAnLXRuJywgJzgnLCAnLW1hJywgJzIwMCcsICctaW1hZScsICc8aW5maWxlLm1hZT4nLCAnLW9tYWUnLCAnPG91dGZpbGUubWFlPic=

>  <r_lp_tautomer_probability>  (53) 
1

>  <r_epik_Ionization_Penalty>  (53) 
1.21239e-06

>  <r_epik_Ionization_Penalty_Charging>  (53) 
0

>  <r_epik_Ionization_Penalty_Neutral>  (53) 
1.21239e-06

>  <r_epik_State_Penalty>  (53) 
-0

>  <r_epik_Charging_Adjusted_Penalty>  (53) 
0

>  <i_epik_Tot_Q>  (53) 
0

>  <i_epik_Tot_abs_Q>  (53) 
0

>  <s_epik_Chemistry_Notes>  (53) 
This compound has an ester and may undergo hydrolysis at high or low pH. This compound contains an acetal/aminal-like group ( X-CH(R)-Y where X, Y are N, S, or O) that may be acid/base labile, releasing an aldehyde.

>  <s_lp_Force_Field>  (53) 
OPLS3e

>  <r_lp_Energy>  (53) 
135.039

>  <b_lp_Chiralities_Consistent>  (53) 
1

>  <s_lp_Variant>  (53) 
18:0-2

>  <s_i_glide_gridfile>  (53) 
pfpi4k_grid

>  <i_i_glide_lignum>  (53) 
23

>  <i_i_glide_rotatable_bonds>  (53) 
13

>  <r_i_docking_score>  (53) 
-2.335

>  <r_i_glide_ligand_efficiency>  (53) 
-0.047653

>  <r_i_glide_ligand_efficiency_sa>  (53) 
-0.174377

>  <r_i_glide_ligand_efficiency_ln>  (53) 
-0.477327

>  <r_i_glide_gscore>  (53) 
-2.335

>  <r_i_glide_lipo>  (53) 
-0.290996

>  <r_i_glide_hbond>  (53) 
0

>  <r_i_glide_metal>  (53) 
-0

>  <r_i_glide_rewards>  (53) 
-0.000176628

>  <r_i_glide_evdw>  (53) 
-24.5853

>  <r_i_glide_ecoul>  (53) 
-5.34469

>  <r_i_glide_erotb>  (53) 
0.0046085

>  <r_i_glide_esite>  (53) 
-0.0396441

>  <r_i_glide_emodel>  (53) 
-26.4395

>  <r_i_glide_energy>  (53) 
-29.93

>  <r_i_glide_einternal>  (53) 
8.1962

>  <r_i_glide_intrahb_reward>  (53) 
-0

>  <i_i_glide_confnum>  (53) 
3

>  <i_i_glide_posenum>  (53) 
6

>  <r_i_glide_eff_state_penalty>  (53) 
0

>  <ligand_id>  (53) 
18

>  <original_smiles>  (53) 
COC1(C)OC(OC(C)=O)C2(C)C(C)(C)C3C(O)CC1C2(O)C3C(C)C12C3CC(C)CC4(O)C(O)(C(O)C(C)C(C3=O)C1O)C24OC(C)=O

>  <smiles>  (53) 
[H]OC1([H])C([H])([H])C2([H])C(OC([H])([H])[H])(C([H])([H])[H])OC([H])(OC(=O)C([H])([H])[H])C3(C([H])([H])[H])C2(O[H])C([H])(C([H])(C([H])([H])[H])C24C([H])(O[H])C5([H])C(=O)C2([H])C([H])([H])C([H])(C([H])([H])[H])C([H])([H])C2(O[H])C(O[H])(C([H])(O[H])C5([H])C([H])([H])[H])C24OC(=O)C([H])([H])[H])C1([H])C3(C([H])([H])[H])C([H])([H])[H]

$$$$
18:1:1
     RDKit          3D

103109  0  0  1  0  0  0  0  0999 V2000
   -0.9541   -5.1238    8.3938 C   0  0  0  0  0  0  0  0  0  0  0  0
    0.2744   -5.3473    7.7078 O   0  0  0  0  0  0  0  0  0  0  0  0
    1.3943   -4.5484    8.0237 C   0  0  1  0  0  0  0  0  0  0  0  0
    1.6976   -4.7547    9.5192 C   0  0  0  0  0  0  0  0  0  0  0  0
    2.5503   -4.9905    7.3608 O   0  0  0  0  0  0  0  0  0  0  0  0
    2.4382   -5.1791    5.9692 C   0  0  1  0  0  0  0  0  0  0  0  0
    1.5376   -6.2001    5.5973 O   0  0  0  0  0  0  0  0  0  0  0  0
    1.8515   -7.4568    6.0165 C   0  0  0  0  0  0  0  0  0  0  0  0
    0.8240   -8.4843    5.5311 C   0  0  0  0  0  0  0  0  0  0  0  0
    2.8079   -7.7833    6.6950 O   0  0  0  0  0  0  0  0  0  0  0  0
    2.1381   -3.8223    5.2353 C   0  0  2  0  0  0  0  0  0  0  0  0
    1.6328   -4.1960    3.7963 C   0  0  0  0  0  0  0  0  0  0  0  0
    3.4118   -2.8729    5.1789 C   0  0  0  0  0  0  0  0  0  0  0  0
    4.7200   -3.4368    5.7950 C   0  0  0  0  0  0  0  0  0  0  0  0
    3.8342   -2.4808    3.7303 C   0  0  0  0  0  0  0  0  0  0  0  0
    2.9534   -1.5400    5.8541 C   0  0  2  0  0  0  0  0  0  0  0  0
    3.2148   -1.4754    7.3932 C   0  0  1  0  0  0  0  0  0  0  0  0
    3.3168   -0.0909    7.7893 O   0  0  0  0  0  0  0  0  0  0  0  0
    2.1516   -2.1105    8.2877 C   0  0  0  0  0  0  0  0  0  0  0  0
    1.1611   -3.0614    7.5826 C   0  0  1  0  0  0  0  0  0  0  0  0
    1.0621   -2.9444    5.9981 C   0  0  2  0  0  0  0  0  0  0  0  0
   -0.2611   -3.3149    5.6326 O   0  0  0  0  0  0  0  0  0  0  0  0
    1.4190   -1.5127    5.4903 C   0  0  1  0  0  0  0  0  0  0  0  0
    0.5794   -0.2570    5.9431 C   0  0  2  0  0  0  0  0  0  0  0  0
   -0.9487   -0.5383    5.9922 C   0  0  0  0  0  0  0  0  0  0  0  0
    0.8321    1.1694    5.2493 C   0  0  2  0  0  0  0  0  0  0  0  0
    0.3217    1.1340    3.7869 C   0  0  1  0  0  0  0  0  0  0  0  0
   -1.1612    1.3587    3.4073 C   0  0  0  0  0  0  0  0  0  0  0  0
   -1.7123    2.7931    3.4374 C   0  0  1  0  0  0  0  0  0  0  0  0
   -3.0602    2.8318    2.7293 C   0  0  0  0  0  0  0  0  0  0  0  0
   -1.9226    3.3450    4.8576 C   0  0  0  0  0  0  0  0  0  0  0  0
   -0.8190    3.3707    5.9239 C   0  0  2  0  0  0  0  0  0  0  0  0
   -1.4134    3.8362    7.1055 O   0  0  0  0  0  0  0  0  0  0  0  0
    0.6106    3.8354    5.7903 C   0  0  2  0  0  0  0  0  0  0  0  0
    1.0470    4.6012    6.8977 O   0  0  0  0  0  0  0  0  0  0  0  0
    1.1648    4.4322    4.4664 C   0  0  1  0  0  0  0  0  0  0  0  0
    1.1724    5.8522    4.4482 O   0  0  0  0  0  0  0  0  0  0  0  0
    2.5208    3.9033    3.9831 C   0  0  1  0  0  0  0  0  0  0  0  0
    3.7040    4.4070    4.8376 C   0  0  0  0  0  0  0  0  0  0  0  0
    2.5073    2.3693    3.7477 C   0  0  2  0  0  0  0  0  0  0  0  0
    1.3274    1.9008    2.9439 C   0  0  0  0  0  0  0  0  0  0  0  0
    1.2611    1.9940    1.6969 O   0  0  0  0  0  0  0  0  0  0  0  0
    2.3417    1.4085    4.9382 C   0  0  1  0  0  0  0  0  0  0  0  0
    3.1385    1.7773    6.0585 O   0  0  0  0  0  0  0  0  0  0  0  0
    0.3112    2.3568    6.1739 C   0  0  2  0  0  0  0  0  0  0  0  0
    0.7476    2.2354    7.5557 O   0  0  0  0  0  0  0  0  0  0  0  0
    0.0692    1.6497    8.5734 C   0  0  0  0  0  0  0  0  0  0  0  0
    0.8463    1.5867    9.8930 C   0  0  0  0  0  0  0  0  0  0  0  0
   -1.0517    1.1426    8.4938 O   0  0  0  0  0  0  0  0  0  0  0  0
   -1.6659   -5.8409    8.0109 H   0  0  0  0  0  0  0  0  0  0  0  0
   -1.3912   -4.1458    8.2065 H   0  0  0  0  0  0  0  0  0  0  0  0
   -0.8852   -5.2866    9.4700 H   0  0  0  0  0  0  0  0  0  0  0  0
    1.5997   -5.8115    9.7806 H   0  0  0  0  0  0  0  0  0  0  0  0
    1.0267   -4.1592   10.1452 H   0  0  0  0  0  0  0  0  0  0  0  0
    2.7258   -4.4827    9.7413 H   0  0  0  0  0  0  0  0  0  0  0  0
    3.4063   -5.5726    5.6386 H   0  0  0  0  0  0  0  0  0  0  0  0
    0.8458   -8.5651    4.4469 H   0  0  0  0  0  0  0  0  0  0  0  0
   -0.1794   -8.2027    5.8420 H   0  0  0  0  0  0  0  0  0  0  0  0
    1.0452   -9.4671    5.9467 H   0  0  0  0  0  0  0  0  0  0  0  0
    1.3859   -3.3302    3.1802 H   0  0  0  0  0  0  0  0  0  0  0  0
    0.7270   -4.8091    3.7912 H   0  0  0  0  0  0  0  0  0  0  0  0
    2.3934   -4.7660    3.2661 H   0  0  0  0  0  0  0  0  0  0  0  0
    5.4613   -2.6382    5.8231 H   0  0  0  0  0  0  0  0  0  0  0  0
    5.1499   -4.2422    5.2006 H   0  0  0  0  0  0  0  0  0  0  0  0
    4.6098   -3.7957    6.8177 H   0  0  0  0  0  0  0  0  0  0  0  0
    4.6872   -1.8057    3.7545 H   0  0  0  0  0  0  0  0  0  0  0  0
    3.0683   -1.9472    3.1665 H   0  0  0  0  0  0  0  0  0  0  0  0
    4.1600   -3.3336    3.1358 H   0  0  0  0  0  0  0  0  0  0  0  0
    3.5914   -0.7718    5.4520 H   0  0  0  0  0  0  0  0  0  0  0  0
    4.1715   -1.9077    7.6658 H   0  0  0  0  0  0  0  0  0  0  0  0
    3.6594   -0.1481    8.6850 H   0  0  0  0  0  0  0  0  0  0  0  0
    2.6188   -2.4876    9.1945 H   0  0  0  0  0  0  0  0  0  0  0  0
    1.5146   -1.3271    8.6825 H   0  0  0  0  0  0  0  0  0  0  0  0
    0.1925   -2.7472    7.9769 H   0  0  0  0  0  0  0  0  0  0  0  0
   -0.2970   -3.3815    4.6820 H   0  0  0  0  0  0  0  0  0  0  0  0
    1.2867   -1.5221    4.4071 H   0  0  0  0  0  0  0  0  0  0  0  0
    0.8919   -0.1691    6.9815 H   0  0  0  0  0  0  0  0  0  0  0  0
   -1.3427   -1.0473    5.0973 H   0  0  0  0  0  0  0  0  0  0  0  0
   -1.5423    0.3741    6.1236 H   0  0  0  0  0  0  0  0  0  0  0  0
   -1.1840   -1.1911    6.8290 H   0  0  0  0  0  0  0  0  0  0  0  0
    0.5112    0.1224    3.4491 H   0  0  0  0  0  0  0  0  0  0  0  0
   -1.2520    0.9996    2.3667 H   0  0  0  0  0  0  0  0  0  0  0  0
   -1.8465    0.7073    3.9422 H   0  0  0  0  0  0  0  0  0  0  0  0
   -1.0868    3.4206    2.8105 H   0  0  0  0  0  0  0  0  0  0  0  0
   -3.7679    2.2321    3.2930 H   0  0  0  0  0  0  0  0  0  0  0  0
   -2.9933    2.4319    1.7142 H   0  0  0  0  0  0  0  0  0  0  0  0
   -3.4661    3.8401    2.6748 H   0  0  0  0  0  0  0  0  0  0  0  0
   -2.2417    4.3840    4.7642 H   0  0  0  0  0  0  0  0  0  0  0  0
   -2.7767    2.8279    5.3327 H   0  0  0  0  0  0  0  0  0  0  0  0
   -0.6915    3.9295    7.7318 H   0  0  0  0  0  0  0  0  0  0  0  0
    1.9958    4.5963    6.8755 H   0  0  0  0  0  0  0  0  0  0  0  0
    0.4626    4.2168    3.7017 H   0  0  0  0  0  0  0  0  0  0  0  0
    1.2722    6.1006    3.5323 H   0  0  0  0  0  0  0  0  0  0  0  0
    2.7043    4.3222    2.9867 H   0  0  0  0  0  0  0  0  0  0  0  0
    3.6203    4.2221    5.9122 H   0  0  0  0  0  0  0  0  0  0  0  0
    3.8620    5.4847    4.7242 H   0  0  0  0  0  0  0  0  0  0  0  0
    4.5896    3.8711    4.4936 H   0  0  0  0  0  0  0  0  0  0  0  0
    3.4209    2.1005    3.2292 H   0  0  0  0  0  0  0  0  0  0  0  0
    2.7383    0.5084    4.5418 H   0  0  0  0  0  0  0  0  0  0  0  0
    4.0372    1.6435    5.7707 H   0  0  0  0  0  0  0  0  0  0  0  0
    0.8685    2.5631   10.3748 H   0  0  0  0  0  0  0  0  0  0  0  0
    1.8635    1.2247    9.7382 H   0  0  0  0  0  0  0  0  0  0  0  0
    0.3588    0.8875   10.5751 H   0  0  0  0  0  0  0  0  0  0  0  0
  1  2  1  0
  1 50  1  0
  1 51  1  0
  1 52  1  0
  3  2  1  6
  3 20  1  0
  3  4  1  0
  3  5  1  0
  4 53  1  0
  4 54  1  0
  4 55  1  0
  5  6  1  0
  6  7  1  0
  6 11  1  0
  6 56  1  6
  7  8  1  0
  8  9  1  0
  8 10  2  0
  9 57  1  0
  9 58  1  0
  9 59  1  0
 11 21  1  0
 11 12  1  6
 11 13  1  0
 12 60  1  0
 12 61  1  0
 12 62  1  0
 13 14  1  0
 13 15  1  0
 13 16  1  0
 14 63  1  0
 14 64  1  0
 14 65  1  0
 15 66  1  0
 15 67  1  0
 15 68  1  0
 16 23  1  0
 16 17  1  0
 16 69  1  6
 17 18  1  0
 17 19  1  0
 17 70  1  6
 18 71  1  0
 19 20  1  0
 19 72  1  0
 19 73  1  0
 20 21  1  0
 20 74  1  1
 21 22  1  6
 21 23  1  0
 22 75  1  0
 23 24  1  0
 23 76  1  6
 24 25  1  0
 24 26  1  0
 24 77  1  1
 25 78  1  0
 25 79  1  0
 25 80  1  0
 26 43  1  0
 26 45  1  1
 26 27  1  0
 27 41  1  0
 27 28  1  0
 27 81  1  6
 28 29  1  0
 28 82  1  0
 28 83  1  0
 29 30  1  0
 29 31  1  0
 29 84  1  6
 30 85  1  0
 30 86  1  0
 30 87  1  0
 31 32  1  0
 31 88  1  0
 31 89  1  0
 32 45  1  0
 32 33  1  1
 32 34  1  0
 33 90  1  0
 34 35  1  1
 34 36  1  0
 34 45  1  0
 35 91  1  0
 36 37  1  0
 36 38  1  0
 36 92  1  6
 37 93  1  0
 38 39  1  0
 38 40  1  0
 38 94  1  6
 39 95  1  0
 39 96  1  0
 39 97  1  0
 40 41  1  0
 40 43  1  0
 40 98  1  6
 41 42  2  0
 43 44  1  0
 43 99  1  6
 44100  1  0
 45 46  1  1
 46 47  1  0
 47 48  1  0
 47 49  2  0
 48101  1  0
 48102  1  0
 48103  1  0
M  END
>  <i_m_ct_stereo_status>  (54) 
1

>  <s_m_source_file>  (54) 
/var/tmp/pbs.5076255.sched01/tmpn440o9cr/0yczfkg0t.sdf

>  <i_m_source_file_index>  (54) 
23

>  <i_lp_mmshare_version>  (54) 
48012

>  <i_f3d_flags>  (54) 
0

>  <s_epik_input>  (54) 
W0NIM11DKD1PKU9bQ0BASF0xT1tDQF0oW0NIM10pKE9bQ0gzXSlbQ0BASF0oW0NAXTIoW09IXSlbQ0BdMTNbQ0gzXSlbQ0gyXVtDQEhdKFtPSF0pW0NAQEhdKEMzKFtDSDNdKVtDSDNdKVtDQEBIXTJbQ0BIXShbQ0gzXSlbQ0BdNDVbQ0BIXTZbQ0gyXVtDQEBIXShbQ0gzXSlbQ0gyXVtDQF03KFtPSF0pW0NAQF0oW09IXSkoW0NAXTU3T0MoPU8pW0NIM10pW0NAQEhdKFtPSF0pW0NAQEhdKFtDSDNdKVtDQEhdKEM2PU8pW0NASF00W09IXQ==

>  <s_epik_cmdline>  (54) 
J2VwaWtfcHl0aG9uJywgJy1waHQnLCAnMi4wJywgJy1waCcsICc3LjAnLCAnLXRuJywgJzgnLCAnLW1hJywgJzIwMCcsICctaW1hZScsICc8aW5maWxlLm1hZT4nLCAnLW9tYWUnLCAnPG91dGZpbGUubWFlPic=

>  <r_lp_tautomer_probability>  (54) 
1

>  <r_epik_Ionization_Penalty>  (54) 
1.21239e-06

>  <r_epik_Ionization_Penalty_Charging>  (54) 
0

>  <r_epik_Ionization_Penalty_Neutral>  (54) 
1.21239e-06

>  <r_epik_State_Penalty>  (54) 
-0

>  <r_epik_Charging_Adjusted_Penalty>  (54) 
0

>  <i_epik_Tot_Q>  (54) 
0

>  <i_epik_Tot_abs_Q>  (54) 
0

>  <s_epik_Chemistry_Notes>  (54) 
This compound has an ester and may undergo hydrolysis at high or low pH. This compound contains an acetal/aminal-like group ( X-CH(R)-Y where X, Y are N, S, or O) that may be acid/base labile, releasing an aldehyde.

>  <s_lp_Force_Field>  (54) 
OPLS3e

>  <r_lp_Energy>  (54) 
135.039

>  <b_lp_Chiralities_Consistent>  (54) 
1

>  <s_lp_Variant>  (54) 
18:0-2

>  <s_i_glide_gridfile>  (54) 
pfpi4k_grid

>  <i_i_glide_lignum>  (54) 
23

>  <i_i_glide_rotatable_bonds>  (54) 
13

>  <r_i_docking_score>  (54) 
-2.16098

>  <r_i_glide_ligand_efficiency>  (54) 
-0.0441017

>  <r_i_glide_ligand_efficiency_sa>  (54) 
-0.161382

>  <r_i_glide_ligand_efficiency_ln>  (54) 
-0.441755

>  <r_i_glide_gscore>  (54) 
-2.16098

>  <r_i_glide_lipo>  (54) 
-0.0610201

>  <r_i_glide_hbond>  (54) 
-0.00462717

>  <r_i_glide_metal>  (54) 
-0

>  <r_i_glide_rewards>  (54) 
0

>  <r_i_glide_evdw>  (54) 
-24.724

>  <r_i_glide_ecoul>  (54) 
-5.45927

>  <r_i_glide_erotb>  (54) 
0.0046085

>  <r_i_glide_esite>  (54) 
-0.044854

>  <r_i_glide_emodel>  (54) 
-28.582

>  <r_i_glide_energy>  (54) 
-30.1833

>  <r_i_glide_einternal>  (54) 
4.16787

>  <r_i_glide_intrahb_reward>  (54) 
-0

>  <i_i_glide_confnum>  (54) 
1

>  <i_i_glide_posenum>  (54) 
31

>  <r_i_glide_eff_state_penalty>  (54) 
0

>  <ligand_id>  (54) 
18

>  <original_smiles>  (54) 
COC1(C)OC(OC(C)=O)C2(C)C(C)(C)C3C(O)CC1C2(O)C3C(C)C12C3CC(C)CC4(O)C(O)(C(O)C(C)C(C3=O)C1O)C24OC(C)=O

>  <smiles>  (54) 
[H]OC1([H])C([H])([H])C2([H])C(OC([H])([H])[H])(C([H])([H])[H])OC([H])(OC(=O)C([H])([H])[H])C3(C([H])([H])[H])C2(O[H])C([H])(C([H])(C([H])([H])[H])C24C([H])(O[H])C5([H])C(=O)C2([H])C([H])([H])C([H])(C([H])([H])[H])C([H])([H])C2(O[H])C(O[H])(C([H])(O[H])C5([H])C([H])([H])[H])C24OC(=O)C([H])([H])[H])C1([H])C3(C([H])([H])[H])C([H])([H])[H]

$$$$
18:1:2
     RDKit          3D

103109  0  0  1  0  0  0  0  0999 V2000
    1.8934    3.9467    3.5157 C   0  0  0  0  0  0  0  0  0  0  0  0
    2.1314    2.5729    3.8171 O   0  0  0  0  0  0  0  0  0  0  0  0
    2.1559    2.1328    5.1516 C   0  0  1  0  0  0  0  0  0  0  0  0
    3.1449    3.0403    5.9615 C   0  0  0  0  0  0  0  0  0  0  0  0
    0.9174    2.2206    5.8013 O   0  0  0  0  0  0  0  0  0  0  0  0
   -0.1817    1.5501    5.2230 C   0  0  1  0  0  0  0  0  0  0  0  0
   -0.6527    2.1552    4.0539 O   0  0  0  0  0  0  0  0  0  0  0  0
   -1.3735    3.2761    4.2033 C   0  0  0  0  0  0  0  0  0  0  0  0
   -2.1037    3.6614    2.9258 C   0  0  0  0  0  0  0  0  0  0  0  0
   -1.4996    3.9331    5.2389 O   0  0  0  0  0  0  0  0  0  0  0  0
    0.0570    0.0033    4.9993 C   0  0  2  0  0  0  0  0  0  0  0  0
   -1.0161   -0.4537    3.9609 C   0  0  0  0  0  0  0  0  0  0  0  0
   -0.0715   -0.8594    6.3239 C   0  0  0  0  0  0  0  0  0  0  0  0
   -0.3778   -0.0331    7.6111 C   0  0  0  0  0  0  0  0  0  0  0  0
   -1.1647   -1.9573    6.2754 C   0  0  0  0  0  0  0  0  0  0  0  0
    1.2638   -1.6453    6.3651 C   0  0  2  0  0  0  0  0  0  0  0  0
    2.3545   -0.9205    7.2252 C   0  0  1  0  0  0  0  0  0  0  0  0
    3.1743   -1.8527    7.8836 O   0  0  0  0  0  0  0  0  0  0  0  0
    3.2058    0.1031    6.4545 C   0  0  0  0  0  0  0  0  0  0  0  0
    2.5992    0.6318    5.1175 C   0  0  1  0  0  0  0  0  0  0  0  0
    1.5069   -0.2927    4.4650 C   0  0  2  0  0  0  0  0  0  0  0  0
    1.5592   -0.2028    3.0487 O   0  0  0  0  0  0  0  0  0  0  0  0
    1.6644   -1.7939    4.8639 C   0  0  1  0  0  0  0  0  0  0  0  0
    2.9923   -2.6455    4.6122 C   0  0  2  0  0  0  0  0  0  0  0  0
    3.9571   -2.0307    3.5602 C   0  0  0  0  0  0  0  0  0  0  0  0
    2.8473   -4.2336    4.4014 C   0  0  2  0  0  0  0  0  0  0  0  0
    2.3251   -4.5001    2.9291 C   0  0  1  0  0  0  0  0  0  0  0  0
    3.2581   -4.5192    1.6821 C   0  0  0  0  0  0  0  0  0  0  0  0
    4.1878   -5.7214    1.4670 C   0  0  1  0  0  0  0  0  0  0  0  0
    4.7771   -5.6379    0.0485 C   0  0  0  0  0  0  0  0  0  0  0  0
    5.3797   -5.8135    2.4650 C   0  0  0  0  0  0  0  0  0  0  0  0
    5.1946   -5.7854    3.9905 C   0  0  2  0  0  0  0  0  0  0  0  0
    6.5129   -5.7629    4.5036 O   0  0  0  0  0  0  0  0  0  0  0  0
    4.2257   -6.5883    4.8399 C   0  0  2  0  0  0  0  0  0  0  0  0
    4.7931   -7.1721    6.0037 O   0  0  0  0  0  0  0  0  0  0  0  0
    3.2347   -7.5968    4.2405 C   0  0  1  0  0  0  0  0  0  0  0  0
    3.6788   -8.9321    4.3418 O   0  0  0  0  0  0  0  0  0  0  0  0
    1.7679   -7.4860    4.7308 C   0  0  1  0  0  0  0  0  0  0  0  0
    1.5439   -8.0022    6.1624 C   0  0  0  0  0  0  0  0  0  0  0  0
    1.1176   -6.1004    4.4501 C   0  0  2  0  0  0  0  0  0  0  0  0
    1.3485   -5.6619    3.0184 C   0  0  0  0  0  0  0  0  0  0  0  0
    0.7836   -6.1686    2.0372 O   0  0  0  0  0  0  0  0  0  0  0  0
    1.6396   -4.8539    5.2068 C   0  0  1  0  0  0  0  0  0  0  0  0
    1.8193   -5.0237    6.5943 O   0  0  0  0  0  0  0  0  0  0  0  0
    4.1622   -5.0206    4.8441 C   0  0  2  0  0  0  0  0  0  0  0  0
    4.6109   -4.6503    6.1844 O   0  0  0  0  0  0  0  0  0  0  0  0
    5.4676   -3.6583    6.4695 C   0  0  0  0  0  0  0  0  0  0  0  0
    5.7865   -3.4907    7.9421 C   0  0  0  0  0  0  0  0  0  0  0  0
    5.9494   -2.8733    5.6442 O   0  0  0  0  0  0  0  0  0  0  0  0
    1.6902    4.0244    2.4478 H   0  0  0  0  0  0  0  0  0  0  0  0
    2.7547    4.5886    3.7364 H   0  0  0  0  0  0  0  0  0  0  0  0
    1.0275    4.3210    4.0520 H   0  0  0  0  0  0  0  0  0  0  0  0
    2.9255    4.0943    5.8422 H   0  0  0  0  0  0  0  0  0  0  0  0
    4.1656    2.8367    5.6365 H   0  0  0  0  0  0  0  0  0  0  0  0
    3.0547    2.8279    7.0304 H   0  0  0  0  0  0  0  0  0  0  0  0
   -0.9974    1.6473    5.9435 H   0  0  0  0  0  0  0  0  0  0  0  0
   -2.8299    2.8927    2.6502 H   0  0  0  0  0  0  0  0  0  0  0  0
   -1.3921    3.7630    2.1004 H   0  0  0  0  0  0  0  0  0  0  0  0
   -2.6280    4.6051    3.0525 H   0  0  0  0  0  0  0  0  0  0  0  0
   -0.9592   -1.5068    3.7145 H   0  0  0  0  0  0  0  0  0  0  0  0
   -0.9055    0.0487    2.9972 H   0  0  0  0  0  0  0  0  0  0  0  0
   -2.0193   -0.2287    4.3184 H   0  0  0  0  0  0  0  0  0  0  0  0
   -0.2885   -0.6612    8.5034 H   0  0  0  0  0  0  0  0  0  0  0  0
   -1.3819    0.3864    7.5905 H   0  0  0  0  0  0  0  0  0  0  0  0
    0.3003    0.8104    7.7685 H   0  0  0  0  0  0  0  0  0  0  0  0
   -1.1632   -2.5387    7.1998 H   0  0  0  0  0  0  0  0  0  0  0  0
   -1.0122   -2.6957    5.4883 H   0  0  0  0  0  0  0  0  0  0  0  0
   -2.1555   -1.5258    6.1272 H   0  0  0  0  0  0  0  0  0  0  0  0
    1.0966   -2.6122    6.8202 H   0  0  0  0  0  0  0  0  0  0  0  0
    1.9361   -0.4160    8.0974 H   0  0  0  0  0  0  0  0  0  0  0  0
    3.6116   -2.3526    7.2130 H   0  0  0  0  0  0  0  0  0  0  0  0
    3.5404    0.8538    7.1575 H   0  0  0  0  0  0  0  0  0  0  0  0
    4.1396   -0.3920    6.1951 H   0  0  0  0  0  0  0  0  0  0  0  0
    3.4555    0.6632    4.4406 H   0  0  0  0  0  0  0  0  0  0  0  0
    2.4550   -0.3412    2.7704 H   0  0  0  0  0  0  0  0  0  0  0  0
    0.8848   -2.3118    4.2937 H   0  0  0  0  0  0  0  0  0  0  0  0
    3.5160   -2.5348    5.5374 H   0  0  0  0  0  0  0  0  0  0  0  0
    3.4982   -1.7786    2.6022 H   0  0  0  0  0  0  0  0  0  0  0  0
    4.7605   -2.7320    3.3386 H   0  0  0  0  0  0  0  0  0  0  0  0
    4.4502   -1.1450    3.9427 H   0  0  0  0  0  0  0  0  0  0  0  0
    1.6428   -3.6721    2.7311 H   0  0  0  0  0  0  0  0  0  0  0  0
    2.5899   -4.4986    0.8262 H   0  0  0  0  0  0  0  0  0  0  0  0
    3.8572   -3.6176    1.5661 H   0  0  0  0  0  0  0  0  0  0  0  0
    3.6125   -6.6403    1.4360 H   0  0  0  0  0  0  0  0  0  0  0  0
    5.3919   -4.7431   -0.0627 H   0  0  0  0  0  0  0  0  0  0  0  0
    3.9974   -5.6032   -0.7061 H   0  0  0  0  0  0  0  0  0  0  0  0
    5.4057   -6.5044   -0.1527 H   0  0  0  0  0  0  0  0  0  0  0  0
    5.9172   -6.7364    2.2528 H   0  0  0  0  0  0  0  0  0  0  0  0
    6.0878   -5.0229    2.2268 H   0  0  0  0  0  0  0  0  0  0  0  0
    6.4568   -5.9884    5.4248 H   0  0  0  0  0  0  0  0  0  0  0  0
    5.3200   -6.5168    6.4478 H   0  0  0  0  0  0  0  0  0  0  0  0
    3.2199   -7.4687    3.1663 H   0  0  0  0  0  0  0  0  0  0  0  0
    4.5022   -9.0153    3.8798 H   0  0  0  0  0  0  0  0  0  0  0  0
    1.2111   -8.1994    4.1057 H   0  0  0  0  0  0  0  0  0  0  0  0
    2.1767   -7.5046    6.8972 H   0  0  0  0  0  0  0  0  0  0  0  0
    1.7673   -9.0710    6.2316 H   0  0  0  0  0  0  0  0  0  0  0  0
    0.5029   -7.8688    6.4632 H   0  0  0  0  0  0  0  0  0  0  0  0
    0.0482   -6.2100    4.6039 H   0  0  0  0  0  0  0  0  0  0  0  0
    0.7681   -4.1981    5.1484 H   0  0  0  0  0  0  0  0  0  0  0  0
    2.4654   -5.7025    6.7487 H   0  0  0  0  0  0  0  0  0  0  0  0
    6.5073   -4.2178    8.3480 H   0  0  0  0  0  0  0  0  0  0  0  0
    4.8675   -3.5415    8.5391 H   0  0  0  0  0  0  0  0  0  0  0  0
    6.2048   -2.4928    8.1107 H   0  0  0  0  0  0  0  0  0  0  0  0
  1  2  1  0
  1 50  1  0
  1 51  1  0
  1 52  1  0
  3  2  1  6
  3 20  1  0
  3  4  1  0
  3  5  1  0
  4 53  1  0
  4 54  1  0
  4 55  1  0
  5  6  1  0
  6  7  1  0
  6 11  1  0
  6 56  1  1
  7  8  1  0
  8  9  1  0
  8 10  2  0
  9 57  1  0
  9 58  1  0
  9 59  1  0
 11 21  1  0
 11 12  1  6
 11 13  1  0
 12 60  1  0
 12 61  1  0
 12 62  1  0
 13 14  1  0
 13 15  1  0
 13 16  1  0
 14 63  1  0
 14 64  1  0
 14 65  1  0
 15 66  1  0
 15 67  1  0
 15 68  1  0
 16 23  1  0
 16 17  1  0
 16 69  1  1
 17 18  1  0
 17 19  1  0
 17 70  1  1
 18 71  1  0
 19 20  1  0
 19 72  1  0
 19 73  1  0
 20 21  1  0
 20 74  1  6
 21 22  1  6
 21 23  1  0
 22 75  1  0
 23 24  1  0
 23 76  1  6
 24 25  1  0
 24 26  1  0
 24 77  1  1
 25 78  1  0
 25 79  1  0
 25 80  1  0
 26 43  1  0
 26 45  1  6
 26 27  1  0
 27 41  1  0
 27 28  1  0
 27 81  1  6
 28 29  1  0
 28 82  1  0
 28 83  1  0
 29 30  1  0
 29 31  1  0
 29 84  1  6
 30 85  1  0
 30 86  1  0
 30 87  1  0
 31 32  1  0
 31 88  1  0
 31 89  1  0
 32 45  1  0
 32 33  1  1
 32 34  1  0
 33 90  1  0
 34 35  1  1
 34 36  1  0
 34 45  1  0
 35 91  1  0
 36 37  1  0
 36 38  1  0
 36 92  1  6
 37 93  1  0
 38 39  1  0
 38 40  1  0
 38 94  1  6
 39 95  1  0
 39 96  1  0
 39 97  1  0
 40 41  1  0
 40 43  1  0
 40 98  1  6
 41 42  2  0
 43 44  1  0
 43 99  1  1
 44100  1  0
 45 46  1  1
 46 47  1  0
 47 48  1  0
 47 49  2  0
 48101  1  0
 48102  1  0
 48103  1  0
M  END
>  <i_m_ct_stereo_status>  (55) 
1

>  <s_m_source_file>  (55) 
/var/tmp/pbs.5076255.sched01/tmpn440o9cr/0yczfkg0t.sdf

>  <i_m_source_file_index>  (55) 
23

>  <i_lp_mmshare_version>  (55) 
48012

>  <i_f3d_flags>  (55) 
0

>  <s_epik_input>  (55) 
W0NIM11DKD1PKU9bQ0BASF0xT1tDQF0oW0NIM10pKE9bQ0gzXSlbQ0BASF0oW0NAXTIoW09IXSlbQ0BdMTNbQ0gzXSlbQ0gyXVtDQEhdKFtPSF0pW0NAQEhdKEMzKFtDSDNdKVtDSDNdKVtDQEBIXTJbQ0BIXShbQ0gzXSlbQ0BdNDVbQ0BIXTZbQ0gyXVtDQEBIXShbQ0gzXSlbQ0gyXVtDQF03KFtPSF0pW0NAQF0oW09IXSkoW0NAXTU3T0MoPU8pW0NIM10pW0NAQEhdKFtPSF0pW0NAQEhdKFtDSDNdKVtDQEhdKEM2PU8pW0NASF00W09IXQ==

>  <s_epik_cmdline>  (55) 
J2VwaWtfcHl0aG9uJywgJy1waHQnLCAnMi4wJywgJy1waCcsICc3LjAnLCAnLXRuJywgJzgnLCAnLW1hJywgJzIwMCcsICctaW1hZScsICc8aW5maWxlLm1hZT4nLCAnLW9tYWUnLCAnPG91dGZpbGUubWFlPic=

>  <r_lp_tautomer_probability>  (55) 
1

>  <r_epik_Ionization_Penalty>  (55) 
1.21239e-06

>  <r_epik_Ionization_Penalty_Charging>  (55) 
0

>  <r_epik_Ionization_Penalty_Neutral>  (55) 
1.21239e-06

>  <r_epik_State_Penalty>  (55) 
-0

>  <r_epik_Charging_Adjusted_Penalty>  (55) 
0

>  <i_epik_Tot_Q>  (55) 
0

>  <i_epik_Tot_abs_Q>  (55) 
0

>  <s_epik_Chemistry_Notes>  (55) 
This compound has an ester and may undergo hydrolysis at high or low pH. This compound contains an acetal/aminal-like group ( X-CH(R)-Y where X, Y are N, S, or O) that may be acid/base labile, releasing an aldehyde.

>  <s_lp_Force_Field>  (55) 
OPLS3e

>  <r_lp_Energy>  (55) 
135.039

>  <b_lp_Chiralities_Consistent>  (55) 
1

>  <s_lp_Variant>  (55) 
18:0-2

>  <s_i_glide_gridfile>  (55) 
pfpi4k_grid

>  <i_i_glide_lignum>  (55) 
23

>  <i_i_glide_rotatable_bonds>  (55) 
13

>  <r_i_docking_score>  (55) 
-1.85525

>  <r_i_glide_ligand_efficiency>  (55) 
-0.0378623

>  <r_i_glide_ligand_efficiency_sa>  (55) 
-0.13855

>  <r_i_glide_ligand_efficiency_ln>  (55) 
-0.379256

>  <r_i_glide_gscore>  (55) 
-1.85525

>  <r_i_glide_lipo>  (55) 
-0.0779193

>  <r_i_glide_hbond>  (55) 
-0.0836411

>  <r_i_glide_metal>  (55) 
-0

>  <r_i_glide_rewards>  (55) 
-0.0112046

>  <r_i_glide_evdw>  (55) 
-23.2005

>  <r_i_glide_ecoul>  (55) 
-2.9801

>  <r_i_glide_erotb>  (55) 
0.0046085

>  <r_i_glide_esite>  (55) 
-0.0800545

>  <r_i_glide_emodel>  (55) 
-24.6723

>  <r_i_glide_energy>  (55) 
-26.1806

>  <r_i_glide_einternal>  (55) 
7.16799

>  <r_i_glide_intrahb_reward>  (55) 
-0

>  <i_i_glide_confnum>  (55) 
1

>  <i_i_glide_posenum>  (55) 
3

>  <r_i_glide_eff_state_penalty>  (55) 
0

>  <ligand_id>  (55) 
18

>  <original_smiles>  (55) 
COC1(C)OC(OC(C)=O)C2(C)C(C)(C)C3C(O)CC1C2(O)C3C(C)C12C3CC(C)CC4(O)C(O)(C(O)C(C)C(C3=O)C1O)C24OC(C)=O

>  <smiles>  (55) 
[H]OC1([H])C([H])([H])C2([H])C(OC([H])([H])[H])(C([H])([H])[H])OC([H])(OC(=O)C([H])([H])[H])C3(C([H])([H])[H])C2(O[H])C([H])(C([H])(C([H])([H])[H])C24C([H])(O[H])C5([H])C(=O)C2([H])C([H])([H])C([H])(C([H])([H])[H])C([H])([H])C2(O[H])C(O[H])(C([H])(O[H])C5([H])C([H])([H])[H])C24OC(=O)C([H])([H])[H])C1([H])C3(C([H])([H])[H])C([H])([H])[H]

$$$$
19:0:0
     RDKit          3D

 33 34  0  0  1  0  0  0  0  0999 V2000
   -1.7449    3.5167    3.3410 C   0  0  0  0  0  0  0  0  0  0  0  0
   -1.2564    2.1081    2.9957 C   0  0  0  0  0  0  0  0  0  0  0  0
   -1.5180    1.1237    4.1647 C   0  0  0  0  0  0  0  0  0  0  0  0
    0.1553    2.1400    2.5222 N   0  0  1  0  0  0  0  0  0  0  0  0
    1.1580    2.5781    3.5328 C   0  0  0  0  0  0  0  0  0  0  0  0
    2.5199    2.1345    3.0065 C   0  0  0  0  0  0  0  0  0  0  0  0
    2.1892    0.9741    2.0438 C   0  0  1  0  0  0  0  0  0  0  0  0
    2.8683   -0.2894    2.3714 N   0  0  0  0  0  0  0  0  0  0  0  0
    2.4052   -1.2372    3.3694 C   0  0  0  0  0  0  0  0  0  0  0  0
    3.4755   -2.3160    3.3669 C   0  0  0  0  0  0  0  0  0  0  0  0
    4.3685   -1.8785    2.3564 O   0  0  0  0  0  0  0  0  0  0  0  0
    4.0476   -0.7130    1.7810 C   0  0  0  0  0  0  0  0  0  0  0  0
    4.7072   -0.1589    0.9168 O   0  0  0  0  0  0  0  0  0  0  0  0
    0.6590    0.8430    2.0319 C   0  0  0  0  0  0  0  0  0  0  0  0
   -2.7855    3.5137    3.6500 H   0  0  0  0  0  0  0  0  0  0  0  0
   -1.6605    4.1781    2.4804 H   0  0  0  0  0  0  0  0  0  0  0  0
   -1.1597    3.9488    4.1517 H   0  0  0  0  0  0  0  0  0  0  0  0
   -1.8603    1.7697    2.1508 H   0  0  0  0  0  0  0  0  0  0  0  0
   -2.5662    1.1649    4.4569 H   0  0  0  0  0  0  0  0  0  0  0  0
   -0.9061    1.3596    5.0364 H   0  0  0  0  0  0  0  0  0  0  0  0
   -1.3314    0.0862    3.8947 H   0  0  0  0  0  0  0  0  0  0  0  0
    1.1361    3.6558    3.7110 H   0  0  0  0  0  0  0  0  0  0  0  0
    0.9757    2.0563    4.4691 H   0  0  0  0  0  0  0  0  0  0  0  0
    3.0201    2.9499    2.4646 H   0  0  0  0  0  0  0  0  0  0  0  0
    3.1807    1.8518    3.8213 H   0  0  0  0  0  0  0  0  0  0  0  0
    2.5150    1.2839    1.0427 H   0  0  0  0  0  0  0  0  0  0  0  0
    2.2966   -0.7646    4.3441 H   0  0  0  0  0  0  0  0  0  0  0  0
    1.4525   -1.6916    3.1016 H   0  0  0  0  0  0  0  0  0  0  0  0
    3.9797   -2.3962    4.3362 H   0  0  0  0  0  0  0  0  0  0  0  0
    3.0455   -3.2887    3.1138 H   0  0  0  0  0  0  0  0  0  0  0  0
    0.3177    0.0811    2.7246 H   0  0  0  0  0  0  0  0  0  0  0  0
    0.2890    0.5915    1.0394 H   0  0  0  0  0  0  0  0  0  0  0  0
    0.2058    2.8108    1.7415 H   0  0  0  0  0  0  0  0  0  0  0  0
  1  2  1  0
  1 15  1  0
  1 16  1  0
  1 17  1  0
  2  3  1  0
  2  4  1  0
  2 18  1  0
  3 19  1  0
  3 20  1  0
  3 21  1  0
  4 14  1  0
  4  5  1  0
  4 33  1  6
  5  6  1  0
  5 22  1  0
  5 23  1  0
  6  7  1  0
  6 24  1  0
  6 25  1  0
  7  8  1  0
  7 14  1  0
  7 26  1  6
  8 12  1  0
  8  9  1  0
  9 10  1  0
  9 27  1  0
  9 28  1  0
 10 11  1  0
 10 29  1  0
 10 30  1  0
 11 12  1  0
 12 13  2  0
 14 31  1  0
 14 32  1  0
M  CHG  1   4   1
M  END
>  <i_m_ct_stereo_status>  (56) 
1

>  <s_m_source_file>  (56) 
/var/tmp/pbs.5076255.sched01/tmpn440o9cr/0yczfkg0t.sdf

>  <i_m_source_file_index>  (56) 
24

>  <i_lp_mmshare_version>  (56) 
48012

>  <i_f3d_flags>  (56) 
0

>  <s_epik_input>  (56) 
W0NIM11bQ0hdKFtDSDNdKU4xW0NIMl1bQ0gyXVtDQEhdKFtDSDJdMSlOMltDSDJdW0NIMl1PQzI9Tw==

>  <s_epik_cmdline>  (56) 
J2VwaWtfcHl0aG9uJywgJy1waHQnLCAnMi4wJywgJy1waCcsICc3LjAnLCAnLXRuJywgJzgnLCAnLW1hJywgJzIwMCcsICctaW1hZScsICc8aW5maWxlLm1hZT4nLCAnLW9tYWUnLCAnPG91dGZpbGUubWFlPic=

>  <r_epik_Ionization_Penalty>  (56) 
0.00109598

>  <r_epik_Ionization_Penalty_Charging>  (56) 
0.00109588

>  <r_epik_Ionization_Penalty_Neutral>  (56) 
1.02732e-07

>  <r_epik_State_Penalty>  (56) 
0.00071879

>  <r_epik_Charging_Adjusted_Penalty>  (56) 
0.00181467

>  <i_epik_Tot_Q>  (56) 
1

>  <i_epik_Tot_abs_Q>  (56) 
1

>  <s_epik_Chemistry_Notes>  (56) 
This compound has an ester and may undergo hydrolysis at high or low pH.

>  <s_lp_Force_Field>  (56) 
OPLS3e

>  <r_lp_Energy>  (56) 
2.83303

>  <b_lp_Chiralities_Consistent>  (56) 
1

>  <s_lp_Variant>  (56) 
19:0-1

>  <s_i_glide_gridfile>  (56) 
pfpi4k_grid

>  <i_i_glide_lignum>  (56) 
24

>  <i_i_glide_rotatable_bonds>  (56) 
2

>  <r_i_docking_score>  (56) 
-3.62503

>  <r_i_glide_ligand_efficiency>  (56) 
-0.25893

>  <r_i_glide_ligand_efficiency_sa>  (56) 
-0.624059

>  <r_i_glide_ligand_efficiency_ln>  (56) 
-0.996144

>  <r_i_glide_gscore>  (56) 
-3.62503

>  <r_i_glide_lipo>  (56) 
-7.86276e-06

>  <r_i_glide_hbond>  (56) 
-0.2

>  <r_i_glide_metal>  (56) 
-0

>  <r_i_glide_rewards>  (56) 
-2.1102

>  <r_i_glide_evdw>  (56) 
-17.1091

>  <r_i_glide_ecoul>  (56) 
-5.07067

>  <r_i_glide_erotb>  (56) 
0.410829

>  <r_i_glide_esite>  (56) 
-0.109586

>  <r_i_glide_emodel>  (56) 
-22.2709

>  <r_i_glide_energy>  (56) 
-22.1798

>  <r_i_glide_einternal>  (56) 
13.2529

>  <r_i_glide_intrahb_reward>  (56) 
-0

>  <i_i_glide_confnum>  (56) 
5

>  <i_i_glide_posenum>  (56) 
27

>  <r_i_glide_eff_state_penalty>  (56) 
0

>  <ligand_id>  (56) 
19

>  <original_smiles>  (56) 
CC(C)N1CCC(N2CCOC2=O)C1

>  <smiles>  (56) 
[H]C([H])([H])C([H])(C([H])([H])[H])[N+]1([H])C([H])([H])C([H])([H])C([H])(N2C(=O)OC([H])([H])C2([H])[H])C1([H])[H]

$$$$
19:0:1
     RDKit          3D

 33 34  0  0  1  0  0  0  0  0999 V2000
   -2.2334    2.9043    2.9061 C   0  0  0  0  0  0  0  0  0  0  0  0
   -1.0934    2.9228    3.9356 C   0  0  0  0  0  0  0  0  0  0  0  0
   -1.2376    4.1433    4.8597 C   0  0  0  0  0  0  0  0  0  0  0  0
    0.2361    2.8974    3.2607 N   0  0  1  0  0  0  0  0  0  0  0  0
    1.4041    3.0697    4.1525 C   0  0  0  0  0  0  0  0  0  0  0  0
    2.6137    2.6329    3.3397 C   0  0  0  0  0  0  0  0  0  0  0  0
    2.0319    1.6685    2.2905 C   0  0  1  0  0  0  0  0  0  0  0  0
    2.6220    0.3317    2.3269 N   0  0  0  0  0  0  0  0  0  0  0  0
    3.3039   -0.2571    1.2036 C   0  0  0  0  0  0  0  0  0  0  0  0
    3.7304   -1.6298    1.7414 C   0  0  0  0  0  0  0  0  0  0  0  0
    3.2897   -1.6069    3.0805 O   0  0  0  0  0  0  0  0  0  0  0  0
    2.6372   -0.5007    3.4336 C   0  0  0  0  0  0  0  0  0  0  0  0
    2.1534   -0.2895    4.5542 O   0  0  0  0  0  0  0  0  0  0  0  0
    0.5161    1.6472    2.5294 C   0  0  0  0  0  0  0  0  0  0  0  0
   -3.2151    2.9228    3.3821 H   0  0  0  0  0  0  0  0  0  0  0  0
   -2.2038    1.9993    2.2968 H   0  0  0  0  0  0  0  0  0  0  0  0
   -2.1659    3.7614    2.2361 H   0  0  0  0  0  0  0  0  0  0  0  0
   -1.2159    2.0455    4.5759 H   0  0  0  0  0  0  0  0  0  0  0  0
   -2.2296    4.1661    5.3222 H   0  0  0  0  0  0  0  0  0  0  0  0
   -1.0872    5.0661    4.3009 H   0  0  0  0  0  0  0  0  0  0  0  0
   -0.5194    4.1303    5.6834 H   0  0  0  0  0  0  0  0  0  0  0  0
    1.5347    4.0850    4.5299 H   0  0  0  0  0  0  0  0  0  0  0  0
    1.2957    2.3996    5.0091 H   0  0  0  0  0  0  0  0  0  0  0  0
    3.0624    3.4949    2.8404 H   0  0  0  0  0  0  0  0  0  0  0  0
    3.3987    2.2033    3.9775 H   0  0  0  0  0  0  0  0  0  0  0  0
    2.2069    2.0931    1.3121 H   0  0  0  0  0  0  0  0  0  0  0  0
    2.6227   -0.3421    0.3591 H   0  0  0  0  0  0  0  0  0  0  0  0
    4.1482    0.3644    0.9187 H   0  0  0  0  0  0  0  0  0  0  0  0
    3.2399   -2.4395    1.2076 H   0  0  0  0  0  0  0  0  0  0  0  0
    4.8106   -1.7635    1.6991 H   0  0  0  0  0  0  0  0  0  0  0  0
    0.1992    0.8000    3.1536 H   0  0  0  0  0  0  0  0  0  0  0  0
   -0.0240    1.5743    1.5855 H   0  0  0  0  0  0  0  0  0  0  0  0
    0.2727    3.6284    2.5553 H   0  0  0  0  0  0  0  0  0  0  0  0
  1  2  1  0
  1 15  1  0
  1 16  1  0
  1 17  1  0
  2  3  1  0
  2  4  1  0
  2 18  1  0
  3 19  1  0
  3 20  1  0
  3 21  1  0
  4 14  1  0
  4  5  1  0
  4 33  1  6
  5  6  1  0
  5 22  1  0
  5 23  1  0
  6  7  1  0
  6 24  1  0
  6 25  1  0
  7  8  1  0
  7 14  1  0
  7 26  1  6
  8 12  1  0
  8  9  1  0
  9 10  1  0
  9 27  1  0
  9 28  1  0
 10 11  1  0
 10 29  1  0
 10 30  1  0
 11 12  1  0
 12 13  2  0
 14 31  1  0
 14 32  1  0
M  CHG  1   4   1
M  END
>  <i_m_ct_stereo_status>  (57) 
1

>  <s_m_source_file>  (57) 
/var/tmp/pbs.5076255.sched01/tmpn440o9cr/0yczfkg0t.sdf

>  <i_m_source_file_index>  (57) 
24

>  <i_lp_mmshare_version>  (57) 
48012

>  <i_f3d_flags>  (57) 
0

>  <s_epik_input>  (57) 
W0NIM11bQ0hdKFtDSDNdKU4xW0NIMl1bQ0gyXVtDQEhdKFtDSDJdMSlOMltDSDJdW0NIMl1PQzI9Tw==

>  <s_epik_cmdline>  (57) 
J2VwaWtfcHl0aG9uJywgJy1waHQnLCAnMi4wJywgJy1waCcsICc3LjAnLCAnLXRuJywgJzgnLCAnLW1hJywgJzIwMCcsICctaW1hZScsICc8aW5maWxlLm1hZT4nLCAnLW9tYWUnLCAnPG91dGZpbGUubWFlPic=

>  <r_epik_Ionization_Penalty>  (57) 
0.00109598

>  <r_epik_Ionization_Penalty_Charging>  (57) 
0.00109588

>  <r_epik_Ionization_Penalty_Neutral>  (57) 
1.02732e-07

>  <r_epik_State_Penalty>  (57) 
0.00071879

>  <r_epik_Charging_Adjusted_Penalty>  (57) 
0.00181467

>  <i_epik_Tot_Q>  (57) 
1

>  <i_epik_Tot_abs_Q>  (57) 
1

>  <s_epik_Chemistry_Notes>  (57) 
This compound has an ester and may undergo hydrolysis at high or low pH.

>  <s_lp_Force_Field>  (57) 
OPLS3e

>  <r_lp_Energy>  (57) 
2.83303

>  <b_lp_Chiralities_Consistent>  (57) 
1

>  <s_lp_Variant>  (57) 
19:0-1

>  <s_i_glide_gridfile>  (57) 
pfpi4k_grid

>  <i_i_glide_lignum>  (57) 
24

>  <i_i_glide_rotatable_bonds>  (57) 
2

>  <r_i_docking_score>  (57) 
-3.4556

>  <r_i_glide_ligand_efficiency>  (57) 
-0.246829

>  <r_i_glide_ligand_efficiency_sa>  (57) 
-0.594893

>  <r_i_glide_ligand_efficiency_ln>  (57) 
-0.949588

>  <r_i_glide_gscore>  (57) 
-3.4556

>  <r_i_glide_lipo>  (57) 
-0.0623115

>  <r_i_glide_hbond>  (57) 
-0.2

>  <r_i_glide_metal>  (57) 
-0

>  <r_i_glide_rewards>  (57) 
-2.05043

>  <r_i_glide_evdw>  (57) 
-16.4817

>  <r_i_glide_ecoul>  (57) 
-4.28702

>  <r_i_glide_erotb>  (57) 
0.410829

>  <r_i_glide_esite>  (57) 
-0.086551

>  <r_i_glide_emodel>  (57) 
-27.2894

>  <r_i_glide_energy>  (57) 
-20.7687

>  <r_i_glide_einternal>  (57) 
0.207692

>  <r_i_glide_intrahb_reward>  (57) 
-0

>  <i_i_glide_confnum>  (57) 
5

>  <i_i_glide_posenum>  (57) 
1

>  <r_i_glide_eff_state_penalty>  (57) 
0

>  <ligand_id>  (57) 
19

>  <original_smiles>  (57) 
CC(C)N1CCC(N2CCOC2=O)C1

>  <smiles>  (57) 
[H]C([H])([H])C([H])(C([H])([H])[H])[N+]1([H])C([H])([H])C([H])([H])C([H])(N2C(=O)OC([H])([H])C2([H])[H])C1([H])[H]

$$$$
19:0:2
     RDKit          3D

 33 34  0  0  1  0  0  0  0  0999 V2000
   -2.1174    4.1225   10.9553 C   0  0  0  0  0  0  0  0  0  0  0  0
   -2.3891    4.0694    9.4457 C   0  0  0  0  0  0  0  0  0  0  0  0
   -3.6598    3.2416    9.1442 C   0  0  0  0  0  0  0  0  0  0  0  0
   -1.1764    3.6331    8.6940 N   0  0  1  0  0  0  0  0  0  0  0  0
   -0.6176    2.3075    9.0417 C   0  0  0  0  0  0  0  0  0  0  0  0
    0.3763    1.9512    7.9328 C   0  0  0  0  0  0  0  0  0  0  0  0
   -0.0776    2.7866    6.7184 C   0  0  1  0  0  0  0  0  0  0  0  0
   -0.4650    1.9746    5.5605 N   0  0  0  0  0  0  0  0  0  0  0  0
    0.1105    2.1813    4.2485 C   0  0  0  0  0  0  0  0  0  0  0  0
   -0.5830    1.1099    3.3956 C   0  0  0  0  0  0  0  0  0  0  0  0
   -1.4036    0.4361    4.3256 O   0  0  0  0  0  0  0  0  0  0  0  0
   -1.3815    0.9557    5.5565 C   0  0  0  0  0  0  0  0  0  0  0  0
   -2.0868    0.5401    6.4857 O   0  0  0  0  0  0  0  0  0  0  0  0
   -1.2775    3.6353    7.2121 C   0  0  0  0  0  0  0  0  0  0  0  0
   -2.9820    4.4629   11.5108 H   0  0  0  0  0  0  0  0  0  0  0  0
   -1.3053    4.8064   11.1881 H   0  0  0  0  0  0  0  0  0  0  0  0
   -1.8551    3.1472   11.3537 H   0  0  0  0  0  0  0  0  0  0  0  0
   -2.6141    5.0893    9.1451 H   0  0  0  0  0  0  0  0  0  0  0  0
   -4.5199    3.5752    9.7213 H   0  0  0  0  0  0  0  0  0  0  0  0
   -3.5129    2.1891    9.3870 H   0  0  0  0  0  0  0  0  0  0  0  0
   -3.9835    3.3100    8.1079 H   0  0  0  0  0  0  0  0  0  0  0  0
   -0.1288    2.2801   10.0208 H   0  0  0  0  0  0  0  0  0  0  0  0
   -1.4101    1.5449    9.0333 H   0  0  0  0  0  0  0  0  0  0  0  0
    1.4013    2.2119    8.2215 H   0  0  0  0  0  0  0  0  0  0  0  0
    0.3704    0.8758    7.7706 H   0  0  0  0  0  0  0  0  0  0  0  0
    0.7380    3.4442    6.4316 H   0  0  0  0  0  0  0  0  0  0  0  0
   -0.0826    3.1833    3.8873 H   0  0  0  0  0  0  0  0  0  0  0  0
    1.1779    2.0297    4.3104 H   0  0  0  0  0  0  0  0  0  0  0  0
   -1.2039    1.5467    2.6096 H   0  0  0  0  0  0  0  0  0  0  0  0
    0.1293    0.4104    2.9556 H   0  0  0  0  0  0  0  0  0  0  0  0
   -2.2272    3.1972    6.8893 H   0  0  0  0  0  0  0  0  0  0  0  0
   -1.2440    4.6495    6.7951 H   0  0  0  0  0  0  0  0  0  0  0  0
   -0.4379    4.2871    8.9070 H   0  0  0  0  0  0  0  0  0  0  0  0
  1  2  1  0
  1 15  1  0
  1 16  1  0
  1 17  1  0
  2  3  1  0
  2  4  1  0
  2 18  1  0
  3 19  1  0
  3 20  1  0
  3 21  1  0
  4 14  1  0
  4  5  1  0
  4 33  1  6
  5  6  1  0
  5 22  1  0
  5 23  1  0
  6  7  1  0
  6 24  1  0
  6 25  1  0
  7  8  1  0
  7 14  1  0
  7 26  1  6
  8 12  1  0
  8  9  1  0
  9 10  1  0
  9 27  1  0
  9 28  1  0
 10 11  1  0
 10 29  1  0
 10 30  1  0
 11 12  1  0
 12 13  2  0
 14 31  1  0
 14 32  1  0
M  CHG  1   4   1
M  END
>  <i_m_ct_stereo_status>  (58) 
1

>  <s_m_source_file>  (58) 
/var/tmp/pbs.5076255.sched01/tmpn440o9cr/0yczfkg0t.sdf

>  <i_m_source_file_index>  (58) 
24

>  <i_lp_mmshare_version>  (58) 
48012

>  <i_f3d_flags>  (58) 
0

>  <s_epik_input>  (58) 
W0NIM11bQ0hdKFtDSDNdKU4xW0NIMl1bQ0gyXVtDQEhdKFtDSDJdMSlOMltDSDJdW0NIMl1PQzI9Tw==

>  <s_epik_cmdline>  (58) 
J2VwaWtfcHl0aG9uJywgJy1waHQnLCAnMi4wJywgJy1waCcsICc3LjAnLCAnLXRuJywgJzgnLCAnLW1hJywgJzIwMCcsICctaW1hZScsICc8aW5maWxlLm1hZT4nLCAnLW9tYWUnLCAnPG91dGZpbGUubWFlPic=

>  <r_epik_Ionization_Penalty>  (58) 
0.00109598

>  <r_epik_Ionization_Penalty_Charging>  (58) 
0.00109588

>  <r_epik_Ionization_Penalty_Neutral>  (58) 
1.02732e-07

>  <r_epik_State_Penalty>  (58) 
0.00071879

>  <r_epik_Charging_Adjusted_Penalty>  (58) 
0.00181467

>  <i_epik_Tot_Q>  (58) 
1

>  <i_epik_Tot_abs_Q>  (58) 
1

>  <s_epik_Chemistry_Notes>  (58) 
This compound has an ester and may undergo hydrolysis at high or low pH.

>  <s_lp_Force_Field>  (58) 
OPLS3e

>  <r_lp_Energy>  (58) 
2.83303

>  <b_lp_Chiralities_Consistent>  (58) 
1

>  <s_lp_Variant>  (58) 
19:0-1

>  <s_i_glide_gridfile>  (58) 
pfpi4k_grid

>  <i_i_glide_lignum>  (58) 
24

>  <i_i_glide_rotatable_bonds>  (58) 
2

>  <r_i_docking_score>  (58) 
-3.24523

>  <r_i_glide_ligand_efficiency>  (58) 
-0.231802

>  <r_i_glide_ligand_efficiency_sa>  (58) 
-0.558676

>  <r_i_glide_ligand_efficiency_ln>  (58) 
-0.891777

>  <r_i_glide_gscore>  (58) 
-3.24523

>  <r_i_glide_lipo>  (58) 
-0.0623222

>  <r_i_glide_hbond>  (58) 
-0.16

>  <r_i_glide_metal>  (58) 
-0

>  <r_i_glide_rewards>  (58) 
-2.05043

>  <r_i_glide_evdw>  (58) 
-14.5731

>  <r_i_glide_ecoul>  (58) 
-4.08536

>  <r_i_glide_erotb>  (58) 
0.410829

>  <r_i_glide_esite>  (58) 
-0.0418436

>  <r_i_glide_emodel>  (58) 
-20.5329

>  <r_i_glide_energy>  (58) 
-18.6585

>  <r_i_glide_einternal>  (58) 
8.52413

>  <r_i_glide_intrahb_reward>  (58) 
-0

>  <i_i_glide_confnum>  (58) 
1

>  <i_i_glide_posenum>  (58) 
20

>  <r_i_glide_eff_state_penalty>  (58) 
0

>  <ligand_id>  (58) 
19

>  <original_smiles>  (58) 
CC(C)N1CCC(N2CCOC2=O)C1

>  <smiles>  (58) 
[H]C([H])([H])C([H])(C([H])([H])[H])[N+]1([H])C([H])([H])C([H])([H])C([H])(N2C(=O)OC([H])([H])C2([H])[H])C1([H])[H]

$$$$
20:0:0
     RDKit          3D

 61 66  0  0  1  0  0  0  0  0999 V2000
    5.4655   -0.5569    2.6916 C   0  0  0  0  0  0  0  0  0  0  0  0
    5.0174   -1.5721    1.6233 C   0  0  1  0  0  0  0  0  0  0  0  0
    3.6980   -1.0960    1.0694 C   0  0  0  0  0  0  0  0  0  0  0  0
    3.4394   -2.0587   -0.0645 C   0  0  0  0  0  0  0  0  0  0  0  0
    4.2368   -3.4183    0.0662 C   0  0  2  0  0  0  0  0  0  0  0  0
    5.2698   -3.8235    1.3640 C   0  0  1  0  0  0  0  0  0  0  0  0
    6.8576   -3.9225    1.2361 C   0  0  0  0  0  0  0  0  0  0  0  0
    7.3498   -3.4191   -0.0863 C   0  0  0  0  0  0  0  0  0  0  0  0
    6.3196   -2.7922   -0.6265 C   0  0  0  0  0  0  0  0  0  0  0  0
    6.0312   -1.4941    0.2892 C   0  0  0  0  0  0  0  0  0  0  0  0
    5.1027   -3.7631   -0.9982 C   0  0  2  0  0  0  0  0  0  0  0  0
    4.6154   -3.4881   -2.4412 C   0  0  0  0  0  0  0  0  0  0  0  0
    5.0142   -5.3713   -0.6122 C   0  0  0  0  0  0  0  0  0  0  0  0
    3.8221   -6.0330    0.3960 C   0  0  0  0  0  0  0  0  0  0  0  0
    3.2010   -5.4531    1.8588 C   0  0  0  0  0  0  0  0  0  0  0  0
    3.3401   -3.8853    2.4343 C   0  0  0  0  0  0  0  0  0  0  0  0
    4.7260   -3.0089    2.3602 C   0  0  2  0  0  0  0  0  0  0  0  0
    3.7214   -6.2194    2.9502 O   0  0  0  0  0  0  0  0  0  0  0  0
    3.2852   -7.6609    2.8541 O   0  0  0  0  0  0  0  0  0  0  0  0
    1.8780   -7.7105    2.8748 C   0  0  0  0  0  0  0  0  0  0  0  0
    1.4392   -9.1885    2.8465 C   0  0  0  0  0  0  0  0  0  0  0  0
   -0.0963   -9.3376    2.9258 C   0  0  0  0  0  0  0  0  0  0  0  0
   -0.6766   -8.6458    4.1700 C   0  0  0  0  0  0  0  0  0  0  0  0
   -0.2327   -7.1790    4.2331 C   0  0  0  0  0  0  0  0  0  0  0  0
    1.3020   -7.0420    4.1527 C   0  0  0  0  0  0  0  0  0  0  0  0
    1.4135   -7.0690    1.7085 O   0  0  0  0  0  0  0  0  0  0  0  0
    1.7819   -5.6123    1.8101 O   0  0  0  0  0  0  0  0  0  0  0  0
    4.7470   -0.4934    3.5106 H   0  0  0  0  0  0  0  0  0  0  0  0
    5.5682    0.4464    2.2810 H   0  0  0  0  0  0  0  0  0  0  0  0
    6.4331   -0.8156    3.1182 H   0  0  0  0  0  0  0  0  0  0  0  0
    2.9145   -1.1159    1.8268 H   0  0  0  0  0  0  0  0  0  0  0  0
    3.7438   -0.0685    0.6978 H   0  0  0  0  0  0  0  0  0  0  0  0
    2.3699   -2.2573   -0.0801 H   0  0  0  0  0  0  0  0  0  0  0  0
    3.6297   -1.5473   -1.0070 H   0  0  0  0  0  0  0  0  0  0  0  0
    3.3018   -3.9371   -0.0811 H   0  0  0  0  0  0  0  0  0  0  0  0
    5.3290   -4.8186    1.7724 H   0  0  0  0  0  0  0  0  0  0  0  0
    7.3072   -3.3438    2.0274 H   0  0  0  0  0  0  0  0  0  0  0  0
    7.2480   -4.9333    1.3668 H   0  0  0  0  0  0  0  0  0  0  0  0
    8.2447   -2.8558    0.1497 H   0  0  0  0  0  0  0  0  0  0  0  0
    5.6993   -0.7033   -0.3842 H   0  0  0  0  0  0  0  0  0  0  0  0
    6.9936   -1.1075    0.6352 H   0  0  0  0  0  0  0  0  0  0  0  0
    3.5845   -3.8097   -2.5925 H   0  0  0  0  0  0  0  0  0  0  0  0
    5.2340   -4.0168   -3.1666 H   0  0  0  0  0  0  0  0  0  0  0  0
    4.6787   -2.4321   -2.7006 H   0  0  0  0  0  0  0  0  0  0  0  0
    4.9562   -5.8945   -1.5609 H   0  0  0  0  0  0  0  0  0  0  0  0
    5.9722   -5.7436   -0.2831 H   0  0  0  0  0  0  0  0  0  0  0  0
    2.9640   -6.1323   -0.2687 H   0  0  0  0  0  0  0  0  0  0  0  0
    4.1230   -7.0695    0.5343 H   0  0  0  0  0  0  0  0  0  0  0  0
    2.5014   -3.3109    2.0430 H   0  0  0  0  0  0  0  0  0  0  0  0
    3.0951   -3.9584    3.4862 H   0  0  0  0  0  0  0  0  0  0  0  0
    5.2953   -3.1052    3.2811 H   0  0  0  0  0  0  0  0  0  0  0  0
    1.8084   -9.6871    1.9501 H   0  0  0  0  0  0  0  0  0  0  0  0
    1.8725   -9.7208    3.6919 H   0  0  0  0  0  0  0  0  0  0  0  0
   -0.5550   -8.9152    2.0265 H   0  0  0  0  0  0  0  0  0  0  0  0
   -0.3759  -10.3954    2.9391 H   0  0  0  0  0  0  0  0  0  0  0  0
   -1.7659   -8.7120    4.1555 H   0  0  0  0  0  0  0  0  0  0  0  0
   -0.3587   -9.1778    5.0678 H   0  0  0  0  0  0  0  0  0  0  0  0
   -0.6905   -6.6343    3.4037 H   0  0  0  0  0  0  0  0  0  0  0  0
   -0.6153   -6.7238    5.1532 H   0  0  0  0  0  0  0  0  0  0  0  0
    1.7304   -7.5087    5.0365 H   0  0  0  0  0  0  0  0  0  0  0  0
    1.5607   -5.9848    4.2359 H   0  0  0  0  0  0  0  0  0  0  0  0
  2  1  1  1
  1 28  1  0
  1 29  1  0
  1 30  1  0
  2 10  1  0
  2 17  1  0
  2  3  1  0
  3  4  1  0
  3 31  1  0
  3 32  1  0
  4  5  1  0
  4 33  1  0
  4 34  1  0
  5 11  1  0
  5  6  1  0
  5 35  1  1
  6 17  1  0
  6  7  1  0
  6 36  1  1
  7  8  1  0
  7 37  1  0
  7 38  1  0
  8  9  2  0
  8 39  1  0
  9 10  1  0
  9 11  1  0
 10 40  1  0
 10 41  1  0
 11 12  1  6
 11 13  1  0
 12 42  1  0
 12 43  1  0
 12 44  1  0
 13 14  1  0
 13 45  1  0
 13 46  1  0
 14 15  1  0
 14 47  1  0
 14 48  1  0
 15 27  1  0
 15 16  1  0
 15 18  1  0
 16 17  1  0
 16 49  1  0
 16 50  1  0
 17 51  1  1
 18 19  1  0
 19 20  1  0
 20 25  1  0
 20 21  1  0
 20 26  1  0
 21 22  1  0
 21 52  1  0
 21 53  1  0
 22 23  1  0
 22 54  1  0
 22 55  1  0
 23 24  1  0
 23 56  1  0
 23 57  1  0
 24 25  1  0
 24 58  1  0
 24 59  1  0
 25 60  1  0
 25 61  1  0
 26 27  1  0
M  END
>  <i_m_ct_stereo_status>  (59) 
1

>  <s_m_source_file>  (59) 
/var/tmp/pbs.5076255.sched01/tmpn440o9cr/0yczfkg0t.sdf

>  <i_m_source_file_index>  (59) 
25

>  <i_lp_mmshare_version>  (59) 
48012

>  <i_f3d_flags>  (59) 
0

>  <s_epik_input>  (59) 
W0NIMl0xW0NIXT1DMltDSDJdW0NAQF0oW0NIM10pKFtDSDJdW0NIMl0zKVtDQEBIXShbQ0gyXTQpW0NASF0xW0NAQEhdM1tDQF0yKFtDSDNdKVtDSDJdW0NIMl1DNDVPT0M2KE9PNSlbQ0gyXVtDSDJdW0NIMl1bQ0gyXVtDSDJdNg==

>  <s_epik_cmdline>  (59) 
J2VwaWtfcHl0aG9uJywgJy1waHQnLCAnMi4wJywgJy1waCcsICc3LjAnLCAnLXRuJywgJzgnLCAnLW1hJywgJzIwMCcsICctaW1hZScsICc8aW5maWxlLm1hZT4nLCAnLW9tYWUnLCAnPG91dGZpbGUubWFlPic=

>  <r_lp_tautomer_probability>  (59) 
1

>  <r_epik_Ionization_Penalty>  (59) 
0

>  <r_epik_Ionization_Penalty_Charging>  (59) 
0

>  <r_epik_Ionization_Penalty_Neutral>  (59) 
0

>  <r_epik_State_Penalty>  (59) 
-0

>  <r_epik_Charging_Adjusted_Penalty>  (59) 
0

>  <i_epik_Tot_Q>  (59) 
0

>  <i_epik_Tot_abs_Q>  (59) 
0

>  <s_lp_Force_Field>  (59) 
OPLS3e

>  <r_lp_Energy>  (59) 
328.394

>  <b_lp_Chiralities_Consistent>  (59) 
1

>  <s_lp_Variant>  (59) 
20:0-1

>  <s_i_glide_gridfile>  (59) 
pfpi4k_grid

>  <i_i_glide_lignum>  (59) 
25

>  <i_i_glide_rotatable_bonds>  (59) 
0

>  <r_i_docking_score>  (59) 
-3.06044

>  <r_i_glide_ligand_efficiency>  (59) 
-0.11335

>  <r_i_glide_ligand_efficiency_sa>  (59) 
-0.340049

>  <r_i_glide_ligand_efficiency_ln>  (59) 
-0.71242

>  <r_i_glide_gscore>  (59) 
-3.06044

>  <r_i_glide_lipo>  (59) 
-0.720921

>  <r_i_glide_hbond>  (59) 
-0.0205599

>  <r_i_glide_metal>  (59) 
-0

>  <r_i_glide_rewards>  (59) 
-0.862429

>  <r_i_glide_evdw>  (59) 
-26.195

>  <r_i_glide_ecoul>  (59) 
-0.900837

>  <r_i_glide_erotb>  (59) 
0

>  <r_i_glide_esite>  (59) 
-0.0116531

>  <r_i_glide_emodel>  (59) 
-32.4846

>  <r_i_glide_energy>  (59) 
-27.0959

>  <r_i_glide_einternal>  (59) 
0

>  <r_i_glide_intrahb_reward>  (59) 
-0

>  <i_i_glide_confnum>  (59) 
4

>  <i_i_glide_posenum>  (59) 
12

>  <r_i_glide_eff_state_penalty>  (59) 
0

>  <ligand_id>  (59) 
20

>  <original_smiles>  (59) 
CC12CCC3C4CC=C(C1)C3(C)CCC1(CC42)OOC2(CCCCC2)OO1

>  <smiles>  (59) 
[H]C1=C2C([H])([H])C3(C([H])([H])[H])C([H])([H])C([H])([H])C4([H])C([H])(C1([H])[H])C3([H])C([H])([H])C1(OOC3(OO1)C([H])([H])C([H])([H])C([H])([H])C([H])([H])C3([H])[H])C([H])([H])C([H])([H])C24C([H])([H])[H]

$$$$
20:0:1
     RDKit          3D

 61 66  0  0  1  0  0  0  0  0999 V2000
   -1.3930   -8.6370    2.6476 C   0  0  0  0  0  0  0  0  0  0  0  0
   -0.0463   -8.2570    3.2976 C   0  0  1  0  0  0  0  0  0  0  0  0
   -0.3040   -7.1298    4.2655 C   0  0  0  0  0  0  0  0  0  0  0  0
    1.0222   -6.9697    4.9705 C   0  0  0  0  0  0  0  0  0  0  0  0
    2.2401   -7.5537    4.1404 C   0  0  2  0  0  0  0  0  0  0  0  0
    2.1255   -8.2796    2.5953 C   0  0  1  0  0  0  0  0  0  0  0  0
    2.2953   -9.8405    2.3131 C   0  0  0  0  0  0  0  0  0  0  0  0
    2.4172  -10.6239    3.5832 C   0  0  0  0  0  0  0  0  0  0  0  0
    2.0360   -9.7931    4.5451 C   0  0  0  0  0  0  0  0  0  0  0  0
    0.4664   -9.4974    4.2998 C   0  0  0  0  0  0  0  0  0  0  0  0
    3.0330   -8.5581    4.7664 C   0  0  2  0  0  0  0  0  0  0  0  0
    3.3519   -8.3774    6.2678 C   0  0  0  0  0  0  0  0  0  0  0  0
    4.3540   -8.2029    3.8359 C   0  0  0  0  0  0  0  0  0  0  0  0
    4.4953   -6.7837    2.9365 C   0  0  0  0  0  0  0  0  0  0  0  0
    3.3436   -5.9767    1.9716 C   0  0  0  0  0  0  0  0  0  0  0  0
    1.6861   -6.1926    2.0360 C   0  0  0  0  0  0  0  0  0  0  0  0
    0.9569   -7.6585    2.1421 C   0  0  2  0  0  0  0  0  0  0  0  0
    3.6157   -6.2021    0.5840 O   0  0  0  0  0  0  0  0  0  0  0  0
    4.9503   -5.6030    0.1933 O   0  0  0  0  0  0  0  0  0  0  0  0
    4.9227   -4.2239    0.4648 C   0  0  0  0  0  0  0  0  0  0  0  0
    6.2742   -3.6235    0.0136 C   0  0  0  0  0  0  0  0  0  0  0  0
    6.3303   -2.0936    0.2164 C   0  0  0  0  0  0  0  0  0  0  0  0
    5.1716   -1.3779   -0.5054 C   0  0  0  0  0  0  0  0  0  0  0  0
    3.8167   -1.9791   -0.0841 C   0  0  0  0  0  0  0  0  0  0  0  0
    3.7792   -3.5039   -0.2939 C   0  0  0  0  0  0  0  0  0  0  0  0
    4.8015   -4.0630    1.8540 O   0  0  0  0  0  0  0  0  0  0  0  0
    3.4445   -4.5878    2.2555 O   0  0  0  0  0  0  0  0  0  0  0  0
   -1.8126   -7.7951    2.0952 H   0  0  0  0  0  0  0  0  0  0  0  0
   -2.1389   -8.9417    3.3885 H   0  0  0  0  0  0  0  0  0  0  0  0
   -1.2824   -9.4624    1.9415 H   0  0  0  0  0  0  0  0  0  0  0  0
   -0.6188   -6.2253    3.7494 H   0  0  0  0  0  0  0  0  0  0  0  0
   -1.0921   -7.3719    4.9829 H   0  0  0  0  0  0  0  0  0  0  0  0
    1.1512   -5.9055    5.1717 H   0  0  0  0  0  0  0  0  0  0  0  0
    0.9464   -7.4120    5.9610 H   0  0  0  0  0  0  0  0  0  0  0  0
    2.7389   -6.6052    4.2740 H   0  0  0  0  0  0  0  0  0  0  0  0
    2.8789   -8.1437    1.8349 H   0  0  0  0  0  0  0  0  0  0  0  0
    1.4547  -10.2201    1.7326 H   0  0  0  0  0  0  0  0  0  0  0  0
    3.1834  -10.0816    1.7236 H   0  0  0  0  0  0  0  0  0  0  0  0
    1.8416  -11.5220    3.4089 H   0  0  0  0  0  0  0  0  0  0  0  0
    0.0068   -9.3996    5.2847 H   0  0  0  0  0  0  0  0  0  0  0  0
    0.0078  -10.4183    3.9375 H   0  0  0  0  0  0  0  0  0  0  0  0
    3.6677   -7.3601    6.5033 H   0  0  0  0  0  0  0  0  0  0  0  0
    4.1476   -9.0577    6.5783 H   0  0  0  0  0  0  0  0  0  0  0  0
    2.4945   -8.6182    6.8941 H   0  0  0  0  0  0  0  0  0  0  0  0
    5.2139   -8.2278    4.5091 H   0  0  0  0  0  0  0  0  0  0  0  0
    4.5905   -9.0467    3.1853 H   0  0  0  0  0  0  0  0  0  0  0  0
    4.8236   -6.0511    3.6759 H   0  0  0  0  0  0  0  0  0  0  0  0
    5.3895   -6.9203    2.3298 H   0  0  0  0  0  0  0  0  0  0  0  0
    1.2925   -5.5138    2.7943 H   0  0  0  0  0  0  0  0  0  0  0  0
    1.3189   -5.7551    1.1121 H   0  0  0  0  0  0  0  0  0  0  0  0
    0.6926   -8.0303    1.1552 H   0  0  0  0  0  0  0  0  0  0  0  0
    7.1047   -4.0910    0.5398 H   0  0  0  0  0  0  0  0  0  0  0  0
    6.4259   -3.8304   -1.0476 H   0  0  0  0  0  0  0  0  0  0  0  0
    6.2845   -1.8610    1.2832 H   0  0  0  0  0  0  0  0  0  0  0  0
    7.2840   -1.6941   -0.1386 H   0  0  0  0  0  0  0  0  0  0  0  0
    5.1900   -0.3068   -0.2773 H   0  0  0  0  0  0  0  0  0  0  0  0
    5.2935   -1.4593   -1.5880 H   0  0  0  0  0  0  0  0  0  0  0  0
    3.6376   -1.7485    0.9678 H   0  0  0  0  0  0  0  0  0  0  0  0
    3.0197   -1.4925   -0.6429 H   0  0  0  0  0  0  0  0  0  0  0  0
    3.8621   -3.7112   -1.3582 H   0  0  0  0  0  0  0  0  0  0  0  0
    2.7928   -3.8652   -0.0137 H   0  0  0  0  0  0  0  0  0  0  0  0
  2  1  1  6
  1 28  1  0
  1 29  1  0
  1 30  1  0
  2 10  1  0
  2 17  1  0
  2  3  1  0
  3  4  1  0
  3 31  1  0
  3 32  1  0
  4  5  1  0
  4 33  1  0
  4 34  1  0
  5 11  1  0
  5  6  1  0
  5 35  1  6
  6 17  1  0
  6  7  1  0
  6 36  1  6
  7  8  1  0
  7 37  1  0
  7 38  1  0
  8  9  2  0
  8 39  1  0
  9 10  1  0
  9 11  1  0
 10 40  1  0
 10 41  1  0
 11 12  1  1
 11 13  1  0
 12 42  1  0
 12 43  1  0
 12 44  1  0
 13 14  1  0
 13 45  1  0
 13 46  1  0
 14 15  1  0
 14 47  1  0
 14 48  1  0
 15 27  1  0
 15 16  1  0
 15 18  1  0
 16 17  1  0
 16 49  1  0
 16 50  1  0
 17 51  1  6
 18 19  1  0
 19 20  1  0
 20 25  1  0
 20 21  1  0
 20 26  1  0
 21 22  1  0
 21 52  1  0
 21 53  1  0
 22 23  1  0
 22 54  1  0
 22 55  1  0
 23 24  1  0
 23 56  1  0
 23 57  1  0
 24 25  1  0
 24 58  1  0
 24 59  1  0
 25 60  1  0
 25 61  1  0
 26 27  1  0
M  END
>  <i_m_ct_stereo_status>  (60) 
1

>  <s_m_source_file>  (60) 
/var/tmp/pbs.5076255.sched01/tmpn440o9cr/0yczfkg0t.sdf

>  <i_m_source_file_index>  (60) 
25

>  <i_lp_mmshare_version>  (60) 
48012

>  <i_f3d_flags>  (60) 
0

>  <s_epik_input>  (60) 
W0NIMl0xW0NIXT1DMltDSDJdW0NAQF0oW0NIM10pKFtDSDJdW0NIMl0zKVtDQEBIXShbQ0gyXTQpW0NASF0xW0NAQEhdM1tDQF0yKFtDSDNdKVtDSDJdW0NIMl1DNDVPT0M2KE9PNSlbQ0gyXVtDSDJdW0NIMl1bQ0gyXVtDSDJdNg==

>  <s_epik_cmdline>  (60) 
J2VwaWtfcHl0aG9uJywgJy1waHQnLCAnMi4wJywgJy1waCcsICc3LjAnLCAnLXRuJywgJzgnLCAnLW1hJywgJzIwMCcsICctaW1hZScsICc8aW5maWxlLm1hZT4nLCAnLW9tYWUnLCAnPG91dGZpbGUubWFlPic=

>  <r_lp_tautomer_probability>  (60) 
1

>  <r_epik_Ionization_Penalty>  (60) 
0

>  <r_epik_Ionization_Penalty_Charging>  (60) 
0

>  <r_epik_Ionization_Penalty_Neutral>  (60) 
0

>  <r_epik_State_Penalty>  (60) 
-0

>  <r_epik_Charging_Adjusted_Penalty>  (60) 
0

>  <i_epik_Tot_Q>  (60) 
0

>  <i_epik_Tot_abs_Q>  (60) 
0

>  <s_lp_Force_Field>  (60) 
OPLS3e

>  <r_lp_Energy>  (60) 
328.394

>  <b_lp_Chiralities_Consistent>  (60) 
1

>  <s_lp_Variant>  (60) 
20:0-1

>  <s_i_glide_gridfile>  (60) 
pfpi4k_grid

>  <i_i_glide_lignum>  (60) 
25

>  <i_i_glide_rotatable_bonds>  (60) 
0

>  <r_i_docking_score>  (60) 
-2.66995

>  <r_i_glide_ligand_efficiency>  (60) 
-0.0988872

>  <r_i_glide_ligand_efficiency_sa>  (60) 
-0.296661

>  <r_i_glide_ligand_efficiency_ln>  (60) 
-0.621521

>  <r_i_glide_gscore>  (60) 
-2.66995

>  <r_i_glide_lipo>  (60) 
-0.190851

>  <r_i_glide_hbond>  (60) 
0

>  <r_i_glide_metal>  (60) 
-0

>  <r_i_glide_rewards>  (60) 
-0.936618

>  <r_i_glide_evdw>  (60) 
-30.5732

>  <r_i_glide_ecoul>  (60) 
-0.0921501

>  <r_i_glide_erotb>  (60) 
0

>  <r_i_glide_esite>  (60) 
0

>  <r_i_glide_emodel>  (60) 
-35.4108

>  <r_i_glide_energy>  (60) 
-30.6654

>  <r_i_glide_einternal>  (60) 
0

>  <r_i_glide_intrahb_reward>  (60) 
-0

>  <i_i_glide_confnum>  (60) 
4

>  <i_i_glide_posenum>  (60) 
10

>  <r_i_glide_eff_state_penalty>  (60) 
0

>  <ligand_id>  (60) 
20

>  <original_smiles>  (60) 
CC12CCC3C4CC=C(C1)C3(C)CCC1(CC42)OOC2(CCCCC2)OO1

>  <smiles>  (60) 
[H]C1=C2C([H])([H])C3(C([H])([H])[H])C([H])([H])C([H])([H])C4([H])C([H])(C1([H])[H])C3([H])C([H])([H])C1(OOC3(OO1)C([H])([H])C([H])([H])C([H])([H])C([H])([H])C3([H])[H])C([H])([H])C([H])([H])C24C([H])([H])[H]

$$$$
20:0:2
     RDKit          3D

 61 66  0  0  1  0  0  0  0  0999 V2000
   -0.3423   -5.8980    6.0448 C   0  0  0  0  0  0  0  0  0  0  0  0
    0.7433   -6.6497    5.2465 C   0  0  1  0  0  0  0  0  0  0  0  0
    2.0000   -6.6533    6.0815 C   0  0  0  0  0  0  0  0  0  0  0  0
    2.9308   -7.5483    5.2979 C   0  0  0  0  0  0  0  0  0  0  0  0
    2.5305   -7.6784    3.7660 C   0  0  2  0  0  0  0  0  0  0  0  0
    1.2094   -6.8824    3.0217 C   0  0  1  0  0  0  0  0  0  0  0  0
   -0.1319   -7.6110    2.5420 C   0  0  0  0  0  0  0  0  0  0  0  0
   -0.1538   -9.0498    2.9675 C   0  0  0  0  0  0  0  0  0  0  0  0
    0.8058   -9.1703    3.8622 C   0  0  0  0  0  0  0  0  0  0  0  0
    0.3633   -8.2813    5.1389 C   0  0  0  0  0  0  0  0  0  0  0  0
    2.2841   -8.9859    3.2670 C   0  0  2  0  0  0  0  0  0  0  0  0
    3.2137  -10.1209    3.7477 C   0  0  0  0  0  0  0  0  0  0  0  0
    2.6488   -8.5431    1.7138 C   0  0  0  0  0  0  0  0  0  0  0  0
    3.4668   -7.1039    1.3407 C   0  0  0  0  0  0  0  0  0  0  0  0
    3.2712   -5.5479    1.9564 C   0  0  0  0  0  0  0  0  0  0  0  0
    2.5048   -5.1307    3.3991 C   0  0  0  0  0  0  0  0  0  0  0  0
    1.0867   -5.7917    3.8872 C   0  0  2  0  0  0  0  0  0  0  0  0
    2.5651   -4.7175    1.0211 O   0  0  0  0  0  0  0  0  0  0  0  0
    3.3518   -4.5538   -0.2504 O   0  0  0  0  0  0  0  0  0  0  0  0
    4.5922   -3.9471    0.0485 C   0  0  0  0  0  0  0  0  0  0  0  0
    5.3765   -3.7405   -1.2551 C   0  0  0  0  0  0  0  0  0  0  0  0
    4.7761   -2.6530   -2.1739 C   0  0  0  0  0  0  0  0  0  0  0  0
    4.6174   -1.3121   -1.4397 C   0  0  0  0  0  0  0  0  0  0  0  0
    3.8207   -1.5085   -0.1431 C   0  0  0  0  0  0  0  0  0  0  0  0
    4.4354   -2.5880    0.7684 C   0  0  0  0  0  0  0  0  0  0  0  0
    5.3062   -4.8531    0.8557 O   0  0  0  0  0  0  0  0  0  0  0  0
    4.5760   -4.9897    2.1642 O   0  0  0  0  0  0  0  0  0  0  0  0
   -0.0514   -4.8628    6.2345 H   0  0  0  0  0  0  0  0  0  0  0  0
   -0.5328   -6.3542    7.0216 H   0  0  0  0  0  0  0  0  0  0  0  0
   -1.2929   -5.8774    5.5099 H   0  0  0  0  0  0  0  0  0  0  0  0
    2.3936   -5.6454    6.2156 H   0  0  0  0  0  0  0  0  0  0  0  0
    1.8376   -7.0596    7.0842 H   0  0  0  0  0  0  0  0  0  0  0  0
    3.9355   -7.1442    5.4160 H   0  0  0  0  0  0  0  0  0  0  0  0
    2.9860   -8.5152    5.7946 H   0  0  0  0  0  0  0  0  0  0  0  0
    3.5477   -7.4142    3.5252 H   0  0  0  0  0  0  0  0  0  0  0  0
    1.2669   -6.4983    2.0181 H   0  0  0  0  0  0  0  0  0  0  0  0
   -1.0122   -7.1037    2.9354 H   0  0  0  0  0  0  0  0  0  0  0  0
   -0.2511   -7.6143    1.4589 H   0  0  0  0  0  0  0  0  0  0  0  0
   -1.1773   -9.2360    3.2775 H   0  0  0  0  0  0  0  0  0  0  0  0
    0.7126   -8.8081    6.0252 H   0  0  0  0  0  0  0  0  0  0  0  0
   -0.7195   -8.3757    5.2458 H   0  0  0  0  0  0  0  0  0  0  0  0
    4.2672   -9.8337    3.7204 H   0  0  0  0  0  0  0  0  0  0  0  0
    3.0957  -11.0137    3.1315 H   0  0  0  0  0  0  0  0  0  0  0  0
    2.9821  -10.4327    4.7642 H   0  0  0  0  0  0  0  0  0  0  0  0
    3.2410   -9.3607    1.2927 H   0  0  0  0  0  0  0  0  0  0  0  0
    1.7592   -8.6110    1.0871 H   0  0  0  0  0  0  0  0  0  0  0  0
    4.5157   -7.3775    1.4968 H   0  0  0  0  0  0  0  0  0  0  0  0
    3.4249   -7.0292    0.2535 H   0  0  0  0  0  0  0  0  0  0  0  0
    3.2482   -5.1820    4.1906 H   0  0  0  0  0  0  0  0  0  0  0  0
    2.3236   -4.0710    3.3186 H   0  0  0  0  0  0  0  0  0  0  0  0
    0.2471   -5.1654    3.5999 H   0  0  0  0  0  0  0  0  0  0  0  0
    6.3954   -3.4403   -1.0159 H   0  0  0  0  0  0  0  0  0  0  0  0
    5.4394   -4.6705   -1.8135 H   0  0  0  0  0  0  0  0  0  0  0  0
    5.4085   -2.5095   -3.0565 H   0  0  0  0  0  0  0  0  0  0  0  0
    3.8028   -2.9848   -2.5491 H   0  0  0  0  0  0  0  0  0  0  0  0
    5.5959   -0.8887   -1.2131 H   0  0  0  0  0  0  0  0  0  0  0  0
    4.1151   -0.5891   -2.0872 H   0  0  0  0  0  0  0  0  0  0  0  0
    3.7473   -0.5518    0.3835 H   0  0  0  0  0  0  0  0  0  0  0  0
    2.7958   -1.7978   -0.3924 H   0  0  0  0  0  0  0  0  0  0  0  0
    3.8349   -2.6547    1.6747 H   0  0  0  0  0  0  0  0  0  0  0  0
    5.4133   -2.2382    1.0961 H   0  0  0  0  0  0  0  0  0  0  0  0
  2  1  1  1
  1 28  1  0
  1 29  1  0
  1 30  1  0
  2 10  1  0
  2 17  1  0
  2  3  1  0
  3  4  1  0
  3 31  1  0
  3 32  1  0
  4  5  1  0
  4 33  1  0
  4 34  1  0
  5 11  1  0
  5  6  1  0
  5 35  1  6
  6 17  1  0
  6  7  1  0
  6 36  1  6
  7  8  1  0
  7 37  1  0
  7 38  1  0
  8  9  2  0
  8 39  1  0
  9 10  1  0
  9 11  1  0
 10 40  1  0
 10 41  1  0
 11 12  1  1
 11 13  1  0
 12 42  1  0
 12 43  1  0
 12 44  1  0
 13 14  1  0
 13 45  1  0
 13 46  1  0
 14 15  1  0
 14 47  1  0
 14 48  1  0
 15 27  1  0
 15 16  1  0
 15 18  1  0
 16 17  1  0
 16 49  1  0
 16 50  1  0
 17 51  1  6
 18 19  1  0
 19 20  1  0
 20 25  1  0
 20 21  1  0
 20 26  1  0
 21 22  1  0
 21 52  1  0
 21 53  1  0
 22 23  1  0
 22 54  1  0
 22 55  1  0
 23 24  1  0
 23 56  1  0
 23 57  1  0
 24 25  1  0
 24 58  1  0
 24 59  1  0
 25 60  1  0
 25 61  1  0
 26 27  1  0
M  END
>  <i_m_ct_stereo_status>  (61) 
1

>  <s_m_source_file>  (61) 
/var/tmp/pbs.5076255.sched01/tmpn440o9cr/0yczfkg0t.sdf

>  <i_m_source_file_index>  (61) 
25

>  <i_lp_mmshare_version>  (61) 
48012

>  <i_f3d_flags>  (61) 
0

>  <s_epik_input>  (61) 
W0NIMl0xW0NIXT1DMltDSDJdW0NAQF0oW0NIM10pKFtDSDJdW0NIMl0zKVtDQEBIXShbQ0gyXTQpW0NASF0xW0NAQEhdM1tDQF0yKFtDSDNdKVtDSDJdW0NIMl1DNDVPT0M2KE9PNSlbQ0gyXVtDSDJdW0NIMl1bQ0gyXVtDSDJdNg==

>  <s_epik_cmdline>  (61) 
J2VwaWtfcHl0aG9uJywgJy1waHQnLCAnMi4wJywgJy1waCcsICc3LjAnLCAnLXRuJywgJzgnLCAnLW1hJywgJzIwMCcsICctaW1hZScsICc8aW5maWxlLm1hZT4nLCAnLW9tYWUnLCAnPG91dGZpbGUubWFlPic=

>  <r_lp_tautomer_probability>  (61) 
1

>  <r_epik_Ionization_Penalty>  (61) 
0

>  <r_epik_Ionization_Penalty_Charging>  (61) 
0

>  <r_epik_Ionization_Penalty_Neutral>  (61) 
0

>  <r_epik_State_Penalty>  (61) 
-0

>  <r_epik_Charging_Adjusted_Penalty>  (61) 
0

>  <i_epik_Tot_Q>  (61) 
0

>  <i_epik_Tot_abs_Q>  (61) 
0

>  <s_lp_Force_Field>  (61) 
OPLS3e

>  <r_lp_Energy>  (61) 
328.394

>  <b_lp_Chiralities_Consistent>  (61) 
1

>  <s_lp_Variant>  (61) 
20:0-1

>  <s_i_glide_gridfile>  (61) 
pfpi4k_grid

>  <i_i_glide_lignum>  (61) 
25

>  <i_i_glide_rotatable_bonds>  (61) 
0

>  <r_i_docking_score>  (61) 
-2.44394

>  <r_i_glide_ligand_efficiency>  (61) 
-0.0905162

>  <r_i_glide_ligand_efficiency_sa>  (61) 
-0.271549

>  <r_i_glide_ligand_efficiency_ln>  (61) 
-0.568908

>  <r_i_glide_gscore>  (61) 
-2.44394

>  <r_i_glide_lipo>  (61) 
-0.17769

>  <r_i_glide_hbond>  (61) 
0

>  <r_i_glide_metal>  (61) 
-0

>  <r_i_glide_rewards>  (61) 
-0.900428

>  <r_i_glide_evdw>  (61) 
-28.5223

>  <r_i_glide_ecoul>  (61) 
0.40198

>  <r_i_glide_erotb>  (61) 
0

>  <r_i_glide_esite>  (61) 
0

>  <r_i_glide_emodel>  (61) 
-32.3988

>  <r_i_glide_energy>  (61) 
-28.1203

>  <r_i_glide_einternal>  (61) 
0

>  <r_i_glide_intrahb_reward>  (61) 
-0

>  <i_i_glide_confnum>  (61) 
5

>  <i_i_glide_posenum>  (61) 
17

>  <r_i_glide_eff_state_penalty>  (61) 
0

>  <ligand_id>  (61) 
20

>  <original_smiles>  (61) 
CC12CCC3C4CC=C(C1)C3(C)CCC1(CC42)OOC2(CCCCC2)OO1

>  <smiles>  (61) 
[H]C1=C2C([H])([H])C3(C([H])([H])[H])C([H])([H])C([H])([H])C4([H])C([H])(C1([H])[H])C3([H])C([H])([H])C1(OOC3(OO1)C([H])([H])C([H])([H])C([H])([H])C([H])([H])C3([H])[H])C([H])([H])C([H])([H])C24C([H])([H])[H]

$$$$
21:0:0
     RDKit          3D

 80 85  0  0  1  0  0  0  0  0999 V2000
    4.5731   -8.0531    5.5692 C   0  0  0  0  0  0  0  0  0  0  0  0
    3.6226   -7.1112    5.3792 C   0  0  0  0  0  0  0  0  0  0  0  0
    4.0300   -5.6432    5.3211 C   0  0  0  0  0  0  0  0  0  0  0  0
    3.2533   -4.7815    6.3388 C   0  0  1  0  0  0  0  0  0  0  0  0
    3.7158   -3.3026    6.4673 C   0  0  1  0  0  0  0  0  0  0  0  0
    5.2065   -3.1695    6.7957 C   0  0  0  0  0  0  0  0  0  0  0  0
    5.5896   -1.7393    7.1991 C   0  0  0  0  0  0  0  0  0  0  0  0
    4.6510   -0.6305    6.6530 C   0  0  1  0  0  0  0  0  0  0  0  0
    5.4232    0.7199    6.6546 C   0  0  0  0  0  0  0  0  0  0  0  0
    6.3434    0.8605    5.4499 C   0  0  0  0  0  0  0  0  0  0  0  0
    7.4884    1.2996    5.5592 O   0  0  0  0  0  0  0  0  0  0  0  0
    5.7507    0.5111    4.0929 C   0  0  0  0  0  0  0  0  0  0  0  0
    5.0353   -0.8505    4.1498 C   0  0  0  0  0  0  0  0  0  0  0  0
    3.9676   -0.9667    5.2771 C   0  0  2  0  0  0  0  0  0  0  0  0
    2.8783    0.1122    5.0022 C   0  0  0  0  0  0  0  0  0  0  0  0
    3.3570   -2.4335    5.2410 C   0  0  2  0  0  0  0  0  0  0  0  0
    1.8332   -2.5442    4.9924 C   0  0  0  0  0  0  0  0  0  0  0  0
    1.3489   -3.9984    4.8477 C   0  0  0  0  0  0  0  0  0  0  0  0
    1.7413   -4.8840    6.0563 C   0  0  1  0  0  0  0  0  0  0  0  0
    1.2863   -6.3843    6.0527 C   0  0  1  0  0  0  0  0  0  0  0  0
   -0.2190   -6.6343    5.8603 C   0  0  0  0  0  0  0  0  0  0  0  0
   -0.6947   -6.6236    4.4022 C   0  0  0  0  0  0  0  0  0  0  0  0
    0.2071   -7.3345    3.3591 C   0  0  2  0  0  0  0  0  0  0  0  0
    0.0017   -6.5841    2.0191 C   0  0  0  0  0  0  0  0  0  0  0  0
   -0.1212   -8.8383    3.1802 C   0  0  1  0  0  0  0  0  0  0  0  0
   -1.3906   -9.1721    2.3762 C   0  0  0  0  0  0  0  0  0  0  0  0
    1.1614   -9.4630    2.6083 C   0  0  0  0  0  0  0  0  0  0  0  0
    2.3085   -8.4693    2.8568 C   0  0  0  0  0  0  0  0  0  0  0  0
    1.7302   -7.3135    3.7077 C   0  0  2  0  0  0  0  0  0  0  0  0
    2.1133   -7.4272    5.2314 C   0  0  1  0  0  0  0  0  0  0  0  0
    1.8201   -8.8039    5.6969 N   0  0  0  0  0  0  0  0  0  0  0  0
    1.8949   -9.1290    7.1298 C   0  0  0  0  0  0  0  0  0  0  0  0
    4.3599   -9.1113    5.6149 H   0  0  0  0  0  0  0  0  0  0  0  0
    5.6093   -7.7681    5.6708 H   0  0  0  0  0  0  0  0  0  0  0  0
    5.1019   -5.5687    5.5116 H   0  0  0  0  0  0  0  0  0  0  0  0
    3.8828   -5.2722    4.3000 H   0  0  0  0  0  0  0  0  0  0  0  0
    3.4318   -5.2403    7.3134 H   0  0  0  0  0  0  0  0  0  0  0  0
    3.1686   -2.8948    7.3227 H   0  0  0  0  0  0  0  0  0  0  0  0
    5.4974   -3.8645    7.5818 H   0  0  0  0  0  0  0  0  0  0  0  0
    5.7923   -3.4279    5.9104 H   0  0  0  0  0  0  0  0  0  0  0  0
    5.5590   -1.6742    8.2899 H   0  0  0  0  0  0  0  0  0  0  0  0
    6.6283   -1.5571    6.9344 H   0  0  0  0  0  0  0  0  0  0  0  0
    3.8513   -0.5204    7.3811 H   0  0  0  0  0  0  0  0  0  0  0  0
    4.7359    1.5610    6.6541 H   0  0  0  0  0  0  0  0  0  0  0  0
    6.0240    0.8139    7.5607 H   0  0  0  0  0  0  0  0  0  0  0  0
    5.0477    1.2913    3.8009 H   0  0  0  0  0  0  0  0  0  0  0  0
    6.5380    0.4963    3.3376 H   0  0  0  0  0  0  0  0  0  0  0  0
    4.5882   -1.0522    3.1788 H   0  0  0  0  0  0  0  0  0  0  0  0
    5.7984   -1.6156    4.2897 H   0  0  0  0  0  0  0  0  0  0  0  0
    2.4503    0.0073    4.0034 H   0  0  0  0  0  0  0  0  0  0  0  0
    3.2622    1.1327    5.0551 H   0  0  0  0  0  0  0  0  0  0  0  0
    2.0656    0.0626    5.7309 H   0  0  0  0  0  0  0  0  0  0  0  0
    3.8170   -2.9262    4.3796 H   0  0  0  0  0  0  0  0  0  0  0  0
    1.2832   -2.0800    5.8115 H   0  0  0  0  0  0  0  0  0  0  0  0
    1.5523   -2.0225    4.0802 H   0  0  0  0  0  0  0  0  0  0  0  0
    0.2691   -3.9536    4.7552 H   0  0  0  0  0  0  0  0  0  0  0  0
    1.7405   -4.4010    3.9161 H   0  0  0  0  0  0  0  0  0  0  0  0
    1.2359   -4.4281    6.9112 H   0  0  0  0  0  0  0  0  0  0  0  0
    1.4583   -6.6228    7.1040 H   0  0  0  0  0  0  0  0  0  0  0  0
   -0.4693   -7.6009    6.2839 H   0  0  0  0  0  0  0  0  0  0  0  0
   -0.7937   -5.8998    6.4335 H   0  0  0  0  0  0  0  0  0  0  0  0
   -1.6981   -7.0554    4.3763 H   0  0  0  0  0  0  0  0  0  0  0  0
   -0.8412   -5.5982    4.1073 H   0  0  0  0  0  0  0  0  0  0  0  0
    0.5402   -7.0517    1.1903 H   0  0  0  0  0  0  0  0  0  0  0  0
    0.3593   -5.5579    2.0993 H   0  0  0  0  0  0  0  0  0  0  0  0
   -1.0498   -6.5554    1.7328 H   0  0  0  0  0  0  0  0  0  0  0  0
   -0.2766   -9.2743    4.1670 H   0  0  0  0  0  0  0  0  0  0  0  0
   -1.3432   -8.8523    1.3359 H   0  0  0  0  0  0  0  0  0  0  0  0
   -2.2759   -8.7251    2.8162 H   0  0  0  0  0  0  0  0  0  0  0  0
   -1.5488  -10.2516    2.3617 H   0  0  0  0  0  0  0  0  0  0  0  0
    1.3647  -10.4407    3.0502 H   0  0  0  0  0  0  0  0  0  0  0  0
    1.0892   -9.6249    1.5387 H   0  0  0  0  0  0  0  0  0  0  0  0
    3.1805   -8.9556    3.2911 H   0  0  0  0  0  0  0  0  0  0  0  0
    2.6385   -8.0671    1.8947 H   0  0  0  0  0  0  0  0  0  0  0  0
    2.1620   -6.3963    3.3271 H   0  0  0  0  0  0  0  0  0  0  0  0
    0.8763   -9.0270    5.3876 H   0  0  0  0  0  0  0  0  0  0  0  0
    1.8636  -10.2118    7.2511 H   0  0  0  0  0  0  0  0  0  0  0  0
    1.0396   -8.7318    7.6860 H   0  0  0  0  0  0  0  0  0  0  0  0
    2.8169   -8.7705    7.5988 H   0  0  0  0  0  0  0  0  0  0  0  0
    2.4331   -9.4335    5.1940 H   0  0  0  0  0  0  0  0  0  0  0  0
  1  2  2  0
  1 33  1  0
  1 34  1  0
  2 30  1  0
  2  3  1  0
  3  4  1  0
  3 35  1  0
  3 36  1  0
  4 19  1  0
  4  5  1  0
  4 37  1  1
  5 16  1  0
  5  6  1  0
  5 38  1  1
  6  7  1  0
  6 39  1  0
  6 40  1  0
  7  8  1  0
  7 41  1  0
  7 42  1  0
  8 14  1  0
  8  9  1  0
  8 43  1  1
  9 10  1  0
  9 44  1  0
  9 45  1  0
 10 11  2  0
 10 12  1  0
 12 13  1  0
 12 46  1  0
 12 47  1  0
 13 14  1  0
 13 48  1  0
 13 49  1  0
 14 15  1  6
 14 16  1  0
 15 50  1  0
 15 51  1  0
 15 52  1  0
 16 17  1  0
 16 53  1  6
 17 18  1  0
 17 54  1  0
 17 55  1  0
 18 19  1  0
 18 56  1  0
 18 57  1  0
 19 20  1  0
 19 58  1  1
 20 30  1  0
 20 21  1  0
 20 59  1  1
 21 22  1  0
 21 60  1  0
 21 61  1  0
 22 23  1  0
 22 62  1  0
 22 63  1  0
 23 29  1  0
 23 24  1  6
 23 25  1  0
 24 64  1  0
 24 65  1  0
 24 66  1  0
 25 26  1  0
 25 27  1  0
 25 67  1  1
 26 68  1  0
 26 69  1  0
 26 70  1  0
 27 28  1  0
 27 71  1  0
 27 72  1  0
 28 29  1  0
 28 73  1  0
 28 74  1  0
 29 30  1  0
 29 75  1  6
 30 31  1  1
 31 32  1  0
 31 76  1  0
 31 80  1  0
 32 77  1  0
 32 78  1  0
 32 79  1  0
M  CHG  1  31   1
M  END
>  <i_m_ct_stereo_status>  (62) 
1

>  <s_m_source_file>  (62) 
/var/tmp/pbs.5076255.sched01/tmpn440o9cr/0yczfkg0t.sdf

>  <i_m_source_file_index>  (62) 
26

>  <i_lp_mmshare_version>  (62) 
48012

>  <i_f3d_flags>  (62) 
0

>  <s_epik_input>  (62) 
W0NIMl0xW0NIMl1bQ0BIXShbQ0gzXSlbQ0BAXShbQ0gzXSkoW0NIMl1bQ0gyXTIpW0NASF0xW0NAXShDKD1bQ0gyXSlbQ0gyXTMpKFtOSF1bQ0gzXSlbQ0BIXTJbQ0BIXShbQ0gyXVtDSDJdW0NASF00NSlbQ0BASF0zW0NASF00W0NIMl1bQ0gyXVtDQEhdKFtDQF01NltDSDNdKVtDSDJdQyg9TylbQ0gyXVtDSDJdNg==

>  <s_epik_cmdline>  (62) 
J2VwaWtfcHl0aG9uJywgJy1waHQnLCAnMi4wJywgJy1waCcsICc3LjAnLCAnLXRuJywgJzgnLCAnLW1hJywgJzIwMCcsICctaW1hZScsICc8aW5maWxlLm1hZT4nLCAnLW9tYWUnLCAnPG91dGZpbGUubWFlPic=

>  <r_lp_tautomer_probability>  (62) 
1

>  <r_epik_Ionization_Penalty>  (62) 
0.000214726

>  <r_epik_Ionization_Penalty_Charging>  (62) 
0.000214726

>  <r_epik_Ionization_Penalty_Neutral>  (62) 
1.24059e-13

>  <r_epik_State_Penalty>  (62) 
-0

>  <r_epik_Charging_Adjusted_Penalty>  (62) 
0.000214726

>  <i_epik_Tot_Q>  (62) 
1

>  <i_epik_Tot_abs_Q>  (62) 
1

>  <s_lp_Force_Field>  (62) 
OPLS3e

>  <r_lp_Energy>  (62) 
75.5364

>  <b_lp_Chiralities_Consistent>  (62) 
1

>  <s_lp_Variant>  (62) 
21:0-1

>  <s_i_glide_gridfile>  (62) 
pfpi4k_grid

>  <i_i_glide_lignum>  (62) 
26

>  <i_i_glide_rotatable_bonds>  (62) 
1

>  <r_i_docking_score>  (62) 
-2.37893

>  <r_i_glide_ligand_efficiency>  (62) 
-0.0743414

>  <r_i_glide_ligand_efficiency_sa>  (62) 
-0.236019

>  <r_i_glide_ligand_efficiency_ln>  (62) 
-0.532706

>  <r_i_glide_gscore>  (62) 
-2.37893

>  <r_i_glide_lipo>  (62) 
-0.554511

>  <r_i_glide_hbond>  (62) 
0

>  <r_i_glide_metal>  (62) 
-0

>  <r_i_glide_rewards>  (62) 
-0.615334

>  <r_i_glide_evdw>  (62) 
-16.3206

>  <r_i_glide_ecoul>  (62) 
-2.45819

>  <r_i_glide_erotb>  (62) 
0

>  <r_i_glide_esite>  (62) 
-0.024325

>  <r_i_glide_emodel>  (62) 
-23.6554

>  <r_i_glide_energy>  (62) 
-18.7787

>  <r_i_glide_einternal>  (62) 
0.102146

>  <r_i_glide_intrahb_reward>  (62) 
-0

>  <i_i_glide_confnum>  (62) 
2

>  <i_i_glide_posenum>  (62) 
2

>  <r_i_glide_eff_state_penalty>  (62) 
0

>  <ligand_id>  (62) 
21

>  <original_smiles>  (62) 
C=C1CC2C3CCC4CC(=O)CCC4(C)C3CCC2C2CCC3(C)C(C)CCC3C12NC

>  <smiles>  (62) 
[H]C([H])=C1C([H])([H])C2([H])C3([H])C([H])([H])C([H])([H])C4([H])C([H])([H])C(=O)C([H])([H])C([H])([H])C4(C([H])([H])[H])C3([H])C([H])([H])C([H])([H])C2([H])C2([H])C([H])([H])C([H])([H])C3(C([H])([H])[H])C([H])(C([H])([H])[H])C([H])([H])C([H])([H])C3([H])C12[N+]([H])([H])C([H])([H])[H]

$$$$
21:0:1
     RDKit          3D

 80 85  0  0  1  0  0  0  0  0999 V2000
    3.2398  -11.3863    3.2611 C   0  0  0  0  0  0  0  0  0  0  0  0
    3.1172  -10.2827    4.0301 C   0  0  0  0  0  0  0  0  0  0  0  0
    4.3749   -9.5936    4.5403 C   0  0  0  0  0  0  0  0  0  0  0  0
    4.3754   -9.4503    6.0769 C   0  0  1  0  0  0  0  0  0  0  0  0
    5.6918   -8.9069    6.7071 C   0  0  1  0  0  0  0  0  0  0  0  0
    6.9248   -9.7328    6.3222 C   0  0  0  0  0  0  0  0  0  0  0  0
    8.1573   -9.3694    7.1632 C   0  0  0  0  0  0  0  0  0  0  0  0
    8.1466   -7.9370    7.7583 C   0  0  1  0  0  0  0  0  0  0  0  0
    9.6080   -7.5143    8.0914 C   0  0  0  0  0  0  0  0  0  0  0  0
   10.3750   -7.0047    6.8722 C   0  0  0  0  0  0  0  0  0  0  0  0
   11.5411   -7.3293    6.6603 O   0  0  0  0  0  0  0  0  0  0  0  0
    9.6417   -6.0267    5.9646 C   0  0  0  0  0  0  0  0  0  0  0  0
    8.2171   -6.5249    5.6500 C   0  0  0  0  0  0  0  0  0  0  0  0
    7.3614   -6.8765    6.9040 C   0  0  2  0  0  0  0  0  0  0  0  0
    7.2208   -5.5797    7.7556 C   0  0  0  0  0  0  0  0  0  0  0  0
    5.9447   -7.4101    6.4173 C   0  0  2  0  0  0  0  0  0  0  0  0
    4.7036   -6.6116    6.8859 C   0  0  0  0  0  0  0  0  0  0  0  0
    3.3875   -7.1206    6.2682 C   0  0  0  0  0  0  0  0  0  0  0  0
    3.1439   -8.6304    6.5181 C   0  0  1  0  0  0  0  0  0  0  0  0
    1.8199   -9.2753    5.9666 C   0  0  1  0  0  0  0  0  0  0  0  0
    0.5035   -8.5881    6.3954 C   0  0  0  0  0  0  0  0  0  0  0  0
    0.1359   -7.3539    5.5503 C   0  0  0  0  0  0  0  0  0  0  0  0
    0.3305   -7.4646    4.0244 C   0  0  2  0  0  0  0  0  0  0  0  0
    0.6018   -6.0250    3.5283 C   0  0  0  0  0  0  0  0  0  0  0  0
   -0.9067   -8.0671    3.3077 C   0  0  1  0  0  0  0  0  0  0  0  0
   -2.1262   -7.1682    3.1222 C   0  0  0  0  0  0  0  0  0  0  0  0
   -0.3731   -8.5806    1.9792 C   0  0  0  0  0  0  0  0  0  0  0  0
    1.1550   -8.7201    2.1124 C   0  0  0  0  0  0  0  0  0  0  0  0
    1.5045   -8.3870    3.5816 C   0  0  2  0  0  0  0  0  0  0  0  0
    1.7601   -9.6713    4.4540 C   0  0  1  0  0  0  0  0  0  0  0  0
    0.6558  -10.6362    4.2098 N   0  0  0  0  0  0  0  0  0  0  0  0
    0.5924  -11.8646    5.0000 C   0  0  0  0  0  0  0  0  0  0  0  0
    2.3974  -11.9275    2.8571 H   0  0  0  0  0  0  0  0  0  0  0  0
    4.2161  -11.7627    2.9935 H   0  0  0  0  0  0  0  0  0  0  0  0
    5.2435  -10.1733    4.2229 H   0  0  0  0  0  0  0  0  0  0  0  0
    4.4721   -8.6165    4.0529 H   0  0  0  0  0  0  0  0  0  0  0  0
    4.2438  -10.4609    6.4697 H   0  0  0  0  0  0  0  0  0  0  0  0
    5.5649   -9.0119    7.7882 H   0  0  0  0  0  0  0  0  0  0  0  0
    6.7197  -10.7988    6.4113 H   0  0  0  0  0  0  0  0  0  0  0  0
    7.1722   -9.5437    5.2746 H   0  0  0  0  0  0  0  0  0  0  0  0
    8.2086  -10.0644    8.0052 H   0  0  0  0  0  0  0  0  0  0  0  0
    9.0592   -9.5548    6.5850 H   0  0  0  0  0  0  0  0  0  0  0  0
    7.6299   -8.0126    8.7120 H   0  0  0  0  0  0  0  0  0  0  0  0
    9.6231   -6.7308    8.8438 H   0  0  0  0  0  0  0  0  0  0  0  0
   10.1534   -8.3583    8.5177 H   0  0  0  0  0  0  0  0  0  0  0  0
    9.6100   -5.0625    6.4671 H   0  0  0  0  0  0  0  0  0  0  0  0
   10.2081   -5.8800    5.0418 H   0  0  0  0  0  0  0  0  0  0  0  0
    7.7116   -5.7738    5.0479 H   0  0  0  0  0  0  0  0  0  0  0  0
    8.3087   -7.4046    5.0125 H   0  0  0  0  0  0  0  0  0  0  0  0
    6.7933   -4.7621    7.1731 H   0  0  0  0  0  0  0  0  0  0  0  0
    8.1752   -5.2109    8.1353 H   0  0  0  0  0  0  0  0  0  0  0  0
    6.5923   -5.7409    8.6353 H   0  0  0  0  0  0  0  0  0  0  0  0
    5.9490   -7.3084    5.3284 H   0  0  0  0  0  0  0  0  0  0  0  0
    4.6105   -6.6575    7.9713 H   0  0  0  0  0  0  0  0  0  0  0  0
    4.7973   -5.5618    6.6172 H   0  0  0  0  0  0  0  0  0  0  0  0
    2.5934   -6.5393    6.7244 H   0  0  0  0  0  0  0  0  0  0  0  0
    3.3965   -6.8873    5.2052 H   0  0  0  0  0  0  0  0  0  0  0  0
    3.0831   -8.7272    7.6051 H   0  0  0  0  0  0  0  0  0  0  0  0
    1.8282  -10.2150    6.5248 H   0  0  0  0  0  0  0  0  0  0  0  0
   -0.3109   -9.3096    6.3605 H   0  0  0  0  0  0  0  0  0  0  0  0
    0.5685   -8.3056    7.4500 H   0  0  0  0  0  0  0  0  0  0  0  0
   -0.9145   -7.1073    5.6884 H   0  0  0  0  0  0  0  0  0  0  0  0
    0.6574   -6.4879    5.9408 H   0  0  0  0  0  0  0  0  0  0  0  0
    0.6740   -5.9652    2.4387 H   0  0  0  0  0  0  0  0  0  0  0  0
    1.5391   -5.6441    3.9389 H   0  0  0  0  0  0  0  0  0  0  0  0
   -0.1830   -5.3394    3.8586 H   0  0  0  0  0  0  0  0  0  0  0  0
   -1.2681   -8.9269    3.8714 H   0  0  0  0  0  0  0  0  0  0  0  0
   -1.9026   -6.3624    2.4362 H   0  0  0  0  0  0  0  0  0  0  0  0
   -2.4869   -6.7688    4.0682 H   0  0  0  0  0  0  0  0  0  0  0  0
   -2.9417   -7.7178    2.6556 H   0  0  0  0  0  0  0  0  0  0  0  0
   -0.8522   -9.5361    1.7591 H   0  0  0  0  0  0  0  0  0  0  0  0
   -0.5944   -7.8974    1.1506 H   0  0  0  0  0  0  0  0  0  0  0  0
    1.5041   -9.6967    1.7754 H   0  0  0  0  0  0  0  0  0  0  0  0
    1.6394   -7.9899    1.4593 H   0  0  0  0  0  0  0  0  0  0  0  0
    2.4164   -7.8053    3.5690 H   0  0  0  0  0  0  0  0  0  0  0  0
   -0.2299  -10.1644    4.3806 H   0  0  0  0  0  0  0  0  0  0  0  0
   -0.0909  -12.5749    4.5289 H   0  0  0  0  0  0  0  0  0  0  0  0
    0.1614  -11.6074    5.9719 H   0  0  0  0  0  0  0  0  0  0  0  0
    1.5592  -12.3616    5.1130 H   0  0  0  0  0  0  0  0  0  0  0  0
    0.6815  -10.8816    3.2292 H   0  0  0  0  0  0  0  0  0  0  0  0
  1  2  2  0
  1 33  1  0
  1 34  1  0
  2 30  1  0
  2  3  1  0
  3  4  1  0
  3 35  1  0
  3 36  1  0
  4 19  1  0
  4  5  1  0
  4 37  1  1
  5 16  1  0
  5  6  1  0
  5 38  1  1
  6  7  1  0
  6 39  1  0
  6 40  1  0
  7  8  1  0
  7 41  1  0
  7 42  1  0
  8 14  1  0
  8  9  1  0
  8 43  1  1
  9 10  1  0
  9 44  1  0
  9 45  1  0
 10 11  2  0
 10 12  1  0
 12 13  1  0
 12 46  1  0
 12 47  1  0
 13 14  1  0
 13 48  1  0
 13 49  1  0
 14 15  1  1
 14 16  1  0
 15 50  1  0
 15 51  1  0
 15 52  1  0
 16 17  1  0
 16 53  1  6
 17 18  1  0
 17 54  1  0
 17 55  1  0
 18 19  1  0
 18 56  1  0
 18 57  1  0
 19 20  1  0
 19 58  1  1
 20 30  1  0
 20 21  1  0
 20 59  1  1
 21 22  1  0
 21 60  1  0
 21 61  1  0
 22 23  1  0
 22 62  1  0
 22 63  1  0
 23 29  1  0
 23 24  1  6
 23 25  1  0
 24 64  1  0
 24 65  1  0
 24 66  1  0
 25 26  1  0
 25 27  1  0
 25 67  1  1
 26 68  1  0
 26 69  1  0
 26 70  1  0
 27 28  1  0
 27 71  1  0
 27 72  1  0
 28 29  1  0
 28 73  1  0
 28 74  1  0
 29 30  1  0
 29 75  1  6
 30 31  1  1
 31 32  1  0
 31 76  1  0
 31 80  1  0
 32 77  1  0
 32 78  1  0
 32 79  1  0
M  CHG  1  31   1
M  END
>  <i_m_ct_stereo_status>  (63) 
1

>  <s_m_source_file>  (63) 
/var/tmp/pbs.5076255.sched01/tmpn440o9cr/0yczfkg0t.sdf

>  <i_m_source_file_index>  (63) 
26

>  <i_lp_mmshare_version>  (63) 
48012

>  <i_f3d_flags>  (63) 
0

>  <s_epik_input>  (63) 
W0NIMl0xW0NIMl1bQ0BIXShbQ0gzXSlbQ0BAXShbQ0gzXSkoW0NIMl1bQ0gyXTIpW0NASF0xW0NAXShDKD1bQ0gyXSlbQ0gyXTMpKFtOSF1bQ0gzXSlbQ0BIXTJbQ0BIXShbQ0gyXVtDSDJdW0NASF00NSlbQ0BASF0zW0NASF00W0NIMl1bQ0gyXVtDQEhdKFtDQF01NltDSDNdKVtDSDJdQyg9TylbQ0gyXVtDSDJdNg==

>  <s_epik_cmdline>  (63) 
J2VwaWtfcHl0aG9uJywgJy1waHQnLCAnMi4wJywgJy1waCcsICc3LjAnLCAnLXRuJywgJzgnLCAnLW1hJywgJzIwMCcsICctaW1hZScsICc8aW5maWxlLm1hZT4nLCAnLW9tYWUnLCAnPG91dGZpbGUubWFlPic=

>  <r_lp_tautomer_probability>  (63) 
1

>  <r_epik_Ionization_Penalty>  (63) 
0.000214726

>  <r_epik_Ionization_Penalty_Charging>  (63) 
0.000214726

>  <r_epik_Ionization_Penalty_Neutral>  (63) 
1.24059e-13

>  <r_epik_State_Penalty>  (63) 
-0

>  <r_epik_Charging_Adjusted_Penalty>  (63) 
0.000214726

>  <i_epik_Tot_Q>  (63) 
1

>  <i_epik_Tot_abs_Q>  (63) 
1

>  <s_lp_Force_Field>  (63) 
OPLS3e

>  <r_lp_Energy>  (63) 
75.5364

>  <b_lp_Chiralities_Consistent>  (63) 
1

>  <s_lp_Variant>  (63) 
21:0-1

>  <s_i_glide_gridfile>  (63) 
pfpi4k_grid

>  <i_i_glide_lignum>  (63) 
26

>  <i_i_glide_rotatable_bonds>  (63) 
1

>  <r_i_docking_score>  (63) 
-1.73523

>  <r_i_glide_ligand_efficiency>  (63) 
-0.0542259

>  <r_i_glide_ligand_efficiency_sa>  (63) 
-0.172157

>  <r_i_glide_ligand_efficiency_ln>  (63) 
-0.388565

>  <r_i_glide_gscore>  (63) 
-1.73523

>  <r_i_glide_lipo>  (63) 
-0.0420689

>  <r_i_glide_hbond>  (63) 
-0.0438098

>  <r_i_glide_metal>  (63) 
-0

>  <r_i_glide_rewards>  (63) 
-0.417898

>  <r_i_glide_evdw>  (63) 
-13.7681

>  <r_i_glide_ecoul>  (63) 
-3.36618

>  <r_i_glide_erotb>  (63) 
0

>  <r_i_glide_esite>  (63) 
-0.0381179

>  <r_i_glide_emodel>  (63) 
-20.5485

>  <r_i_glide_energy>  (63) 
-17.1343

>  <r_i_glide_einternal>  (63) 
0.0126808

>  <r_i_glide_intrahb_reward>  (63) 
-0

>  <i_i_glide_confnum>  (63) 
2

>  <i_i_glide_posenum>  (63) 
1

>  <r_i_glide_eff_state_penalty>  (63) 
0

>  <ligand_id>  (63) 
21

>  <original_smiles>  (63) 
C=C1CC2C3CCC4CC(=O)CCC4(C)C3CCC2C2CCC3(C)C(C)CCC3C12NC

>  <smiles>  (63) 
[H]C([H])=C1C([H])([H])C2([H])C3([H])C([H])([H])C([H])([H])C4([H])C([H])([H])C(=O)C([H])([H])C([H])([H])C4(C([H])([H])[H])C3([H])C([H])([H])C([H])([H])C2([H])C2([H])C([H])([H])C([H])([H])C3(C([H])([H])[H])C([H])(C([H])([H])[H])C([H])([H])C([H])([H])C3([H])C12[N+]([H])([H])C([H])([H])[H]

$$$$
21:0:2
     RDKit          3D

 80 85  0  0  1  0  0  0  0  0999 V2000
    5.1413   -9.5504    3.6791 C   0  0  0  0  0  0  0  0  0  0  0  0
    4.3697   -8.9186    4.5912 C   0  0  0  0  0  0  0  0  0  0  0  0
    4.9827   -7.8157    5.4473 C   0  0  0  0  0  0  0  0  0  0  0  0
    4.7876   -8.0744    6.9575 C   0  0  1  0  0  0  0  0  0  0  0  0
    5.5228   -7.0867    7.9123 C   0  0  1  0  0  0  0  0  0  0  0  0
    7.0293   -7.0117    7.6501 C   0  0  0  0  0  0  0  0  0  0  0  0
    7.7794   -6.2671    8.7623 C   0  0  0  0  0  0  0  0  0  0  0  0
    6.9294   -5.2486    9.5654 C   0  0  1  0  0  0  0  0  0  0  0  0
    7.8755   -4.2094   10.2367 C   0  0  0  0  0  0  0  0  0  0  0  0
    8.3064   -3.0894    9.2896 C   0  0  0  0  0  0  0  0  0  0  0  0
    9.4631   -2.6791    9.2557 O   0  0  0  0  0  0  0  0  0  0  0  0
    7.2188   -2.4679    8.4256 C   0  0  0  0  0  0  0  0  0  0  0  0
    6.3502   -3.5558    7.7657 C   0  0  0  0  0  0  0  0  0  0  0  0
    5.7487   -4.5956    8.7555 C   0  0  2  0  0  0  0  0  0  0  0  0
    4.8409   -3.8241    9.7597 C   0  0  0  0  0  0  0  0  0  0  0  0
    4.9114   -5.6657    7.9236 C   0  0  2  0  0  0  0  0  0  0  0  0
    3.4055   -5.7892    8.2628 C   0  0  0  0  0  0  0  0  0  0  0  0
    2.6512   -6.7521    7.3250 C   0  0  0  0  0  0  0  0  0  0  0  0
    3.2814   -8.1659    7.2781 C   0  0  1  0  0  0  0  0  0  0  0  0
    2.5921   -9.2589    6.3840 C   0  0  1  0  0  0  0  0  0  0  0  0
    1.0924   -9.5060    6.6565 C   0  0  0  0  0  0  0  0  0  0  0  0
    0.1415   -8.5171    5.9682 C   0  0  0  0  0  0  0  0  0  0  0  0
    0.4683   -8.1186    4.5023 C   0  0  2  0  0  0  0  0  0  0  0  0
   -0.0700   -6.6753    4.3089 C   0  0  0  0  0  0  0  0  0  0  0  0
   -0.1629   -9.0628    3.4464 C   0  0  1  0  0  0  0  0  0  0  0  0
   -1.6731   -8.9150    3.1745 C   0  0  0  0  0  0  0  0  0  0  0  0
    0.6901   -8.8803    2.1845 C   0  0  0  0  0  0  0  0  0  0  0  0
    2.0104   -8.2257    2.6099 C   0  0  0  0  0  0  0  0  0  0  0  0
    1.9921   -8.1398    4.1532 C   0  0  2  0  0  0  0  0  0  0  0  0
    2.8742   -9.2538    4.8450 C   0  0  1  0  0  0  0  0  0  0  0  0
    2.5199  -10.5743    4.2603 N   0  0  0  0  0  0  0  0  0  0  0  0
    3.1451  -11.8074    4.7703 C   0  0  0  0  0  0  0  0  0  0  0  0
    4.7751  -10.3333    3.0318 H   0  0  0  0  0  0  0  0  0  0  0  0
    6.1831   -9.2819    3.5589 H   0  0  0  0  0  0  0  0  0  0  0  0
    6.0478   -7.7437    5.2176 H   0  0  0  0  0  0  0  0  0  0  0  0
    4.5526   -6.8551    5.1547 H   0  0  0  0  0  0  0  0  0  0  0  0
    5.2177   -9.0581    7.1524 H   0  0  0  0  0  0  0  0  0  0  0  0
    5.3997   -7.5002    8.9176 H   0  0  0  0  0  0  0  0  0  0  0  0
    7.4538   -8.0058    7.5168 H   0  0  0  0  0  0  0  0  0  0  0  0
    7.2019   -6.4704    6.7160 H   0  0  0  0  0  0  0  0  0  0  0  0
    8.1543   -7.0095    9.4758 H   0  0  0  0  0  0  0  0  0  0  0  0
    8.6712   -5.8060    8.3427 H   0  0  0  0  0  0  0  0  0  0  0  0
    6.4716   -5.8097   10.3779 H   0  0  0  0  0  0  0  0  0  0  0  0
    7.3942   -3.7507   11.0986 H   0  0  0  0  0  0  0  0  0  0  0  0
    8.7687   -4.7051   10.6207 H   0  0  0  0  0  0  0  0  0  0  0  0
    6.6094   -1.8188    9.0547 H   0  0  0  0  0  0  0  0  0  0  0  0
    7.6720   -1.8245    7.6704 H   0  0  0  0  0  0  0  0  0  0  0  0
    5.5548   -3.0719    7.2013 H   0  0  0  0  0  0  0  0  0  0  0  0
    6.9685   -4.0690    7.0273 H   0  0  0  0  0  0  0  0  0  0  0  0
    4.0758   -3.2423    9.2431 H   0  0  0  0  0  0  0  0  0  0  0  0
    5.3940   -3.1106   10.3721 H   0  0  0  0  0  0  0  0  0  0  0  0
    4.3459   -4.4964   10.4615 H   0  0  0  0  0  0  0  0  0  0  0  0
    4.9355   -5.3223    6.8875 H   0  0  0  0  0  0  0  0  0  0  0  0
    3.2776   -6.1350    9.2888 H   0  0  0  0  0  0  0  0  0  0  0  0
    2.9153   -4.8195    8.1899 H   0  0  0  0  0  0  0  0  0  0  0  0
    1.6340   -6.8120    7.7018 H   0  0  0  0  0  0  0  0  0  0  0  0
    2.6019   -6.3019    6.3370 H   0  0  0  0  0  0  0  0  0  0  0  0
    3.2070   -8.5372    8.3018 H   0  0  0  0  0  0  0  0  0  0  0  0
    3.0767  -10.1576    6.7714 H   0  0  0  0  0  0  0  0  0  0  0  0
    0.8259  -10.5134    6.3418 H   0  0  0  0  0  0  0  0  0  0  0  0
    0.9080   -9.4997    7.7330 H   0  0  0  0  0  0  0  0  0  0  0  0
   -0.8607   -8.9541    6.0052 H   0  0  0  0  0  0  0  0  0  0  0  0
    0.0599   -7.6273    6.5795 H   0  0  0  0  0  0  0  0  0  0  0  0
    0.0424   -6.3251    3.2819 H   0  0  0  0  0  0  0  0  0  0  0  0
    0.4605   -5.9688    4.9514 H   0  0  0  0  0  0  0  0  0  0  0  0
   -1.1283   -6.6035    4.5708 H   0  0  0  0  0  0  0  0  0  0  0  0
   -0.0259  -10.0890    3.7851 H   0  0  0  0  0  0  0  0  0  0  0  0
   -1.9341   -7.9483    2.7478 H   0  0  0  0  0  0  0  0  0  0  0  0
   -2.2490   -9.0472    4.0877 H   0  0  0  0  0  0  0  0  0  0  0  0
   -2.0131   -9.6787    2.4741 H   0  0  0  0  0  0  0  0  0  0  0  0
    0.8773   -9.8504    1.7299 H   0  0  0  0  0  0  0  0  0  0  0  0
    0.1884   -8.2507    1.4451 H   0  0  0  0  0  0  0  0  0  0  0  0
    2.8714   -8.7562    2.2024 H   0  0  0  0  0  0  0  0  0  0  0  0
    2.0555   -7.2177    2.1917 H   0  0  0  0  0  0  0  0  0  0  0  0
    2.4178   -7.1778    4.4151 H   0  0  0  0  0  0  0  0  0  0  0  0
    1.5191  -10.6836    4.3808 H   0  0  0  0  0  0  0  0  0  0  0  0
    2.9364  -12.6297    4.0777 H   0  0  0  0  0  0  0  0  0  0  0  0
    2.7332  -12.1025    5.7356 H   0  0  0  0  0  0  0  0  0  0  0  0
    4.2304  -11.7376    4.8670 H   0  0  0  0  0  0  0  0  0  0  0  0
    2.6925  -10.5199    3.2634 H   0  0  0  0  0  0  0  0  0  0  0  0
  1  2  2  0
  1 33  1  0
  1 34  1  0
  2 30  1  0
  2  3  1  0
  3  4  1  0
  3 35  1  0
  3 36  1  0
  4 19  1  0
  4  5  1  0
  4 37  1  1
  5 16  1  0
  5  6  1  0
  5 38  1  1
  6  7  1  0
  6 39  1  0
  6 40  1  0
  7  8  1  0
  7 41  1  0
  7 42  1  0
  8 14  1  0
  8  9  1  0
  8 43  1  1
  9 10  1  0
  9 44  1  0
  9 45  1  0
 10 11  2  0
 10 12  1  0
 12 13  1  0
 12 46  1  0
 12 47  1  0
 13 14  1  0
 13 48  1  0
 13 49  1  0
 14 15  1  1
 14 16  1  0
 15 50  1  0
 15 51  1  0
 15 52  1  0
 16 17  1  0
 16 53  1  6
 17 18  1  0
 17 54  1  0
 17 55  1  0
 18 19  1  0
 18 56  1  0
 18 57  1  0
 19 20  1  0
 19 58  1  1
 20 30  1  0
 20 21  1  0
 20 59  1  1
 21 22  1  0
 21 60  1  0
 21 61  1  0
 22 23  1  0
 22 62  1  0
 22 63  1  0
 23 29  1  0
 23 24  1  6
 23 25  1  0
 24 64  1  0
 24 65  1  0
 24 66  1  0
 25 26  1  0
 25 27  1  0
 25 67  1  1
 26 68  1  0
 26 69  1  0
 26 70  1  0
 27 28  1  0
 27 71  1  0
 27 72  1  0
 28 29  1  0
 28 73  1  0
 28 74  1  0
 29 30  1  0
 29 75  1  6
 30 31  1  6
 31 32  1  0
 31 76  1  0
 31 80  1  0
 32 77  1  0
 32 78  1  0
 32 79  1  0
M  CHG  1  31   1
M  END
>  <i_m_ct_stereo_status>  (64) 
1

>  <s_m_source_file>  (64) 
/var/tmp/pbs.5076255.sched01/tmpn440o9cr/0yczfkg0t.sdf

>  <i_m_source_file_index>  (64) 
26

>  <i_lp_mmshare_version>  (64) 
48012

>  <i_f3d_flags>  (64) 
0

>  <s_epik_input>  (64) 
W0NIMl0xW0NIMl1bQ0BIXShbQ0gzXSlbQ0BAXShbQ0gzXSkoW0NIMl1bQ0gyXTIpW0NASF0xW0NAXShDKD1bQ0gyXSlbQ0gyXTMpKFtOSF1bQ0gzXSlbQ0BIXTJbQ0BIXShbQ0gyXVtDSDJdW0NASF00NSlbQ0BASF0zW0NASF00W0NIMl1bQ0gyXVtDQEhdKFtDQF01NltDSDNdKVtDSDJdQyg9TylbQ0gyXVtDSDJdNg==

>  <s_epik_cmdline>  (64) 
J2VwaWtfcHl0aG9uJywgJy1waHQnLCAnMi4wJywgJy1waCcsICc3LjAnLCAnLXRuJywgJzgnLCAnLW1hJywgJzIwMCcsICctaW1hZScsICc8aW5maWxlLm1hZT4nLCAnLW9tYWUnLCAnPG91dGZpbGUubWFlPic=

>  <r_lp_tautomer_probability>  (64) 
1

>  <r_epik_Ionization_Penalty>  (64) 
0.000214726

>  <r_epik_Ionization_Penalty_Charging>  (64) 
0.000214726

>  <r_epik_Ionization_Penalty_Neutral>  (64) 
1.24059e-13

>  <r_epik_State_Penalty>  (64) 
-0

>  <r_epik_Charging_Adjusted_Penalty>  (64) 
0.000214726

>  <i_epik_Tot_Q>  (64) 
1

>  <i_epik_Tot_abs_Q>  (64) 
1

>  <s_lp_Force_Field>  (64) 
OPLS3e

>  <r_lp_Energy>  (64) 
75.5364

>  <b_lp_Chiralities_Consistent>  (64) 
1

>  <s_lp_Variant>  (64) 
21:0-1

>  <s_i_glide_gridfile>  (64) 
pfpi4k_grid

>  <i_i_glide_lignum>  (64) 
26

>  <i_i_glide_rotatable_bonds>  (64) 
1

>  <r_i_docking_score>  (64) 
-1.71799

>  <r_i_glide_ligand_efficiency>  (64) 
-0.0536873

>  <r_i_glide_ligand_efficiency_sa>  (64) 
-0.170446

>  <r_i_glide_ligand_efficiency_ln>  (64) 
-0.384705

>  <r_i_glide_gscore>  (64) 
-1.71799

>  <r_i_glide_lipo>  (64) 
-0.00910985

>  <r_i_glide_hbond>  (64) 
0

>  <r_i_glide_metal>  (64) 
-0

>  <r_i_glide_rewards>  (64) 
-0.426316

>  <r_i_glide_evdw>  (64) 
-15.6495

>  <r_i_glide_ecoul>  (64) 
-3.22233

>  <r_i_glide_erotb>  (64) 
0

>  <r_i_glide_esite>  (64) 
-0.0167426

>  <r_i_glide_emodel>  (64) 
-22.3246

>  <r_i_glide_energy>  (64) 
-18.8718

>  <r_i_glide_einternal>  (64) 
0.0258874

>  <r_i_glide_intrahb_reward>  (64) 
-0

>  <i_i_glide_confnum>  (64) 
1

>  <i_i_glide_posenum>  (64) 
30

>  <r_i_glide_eff_state_penalty>  (64) 
0

>  <ligand_id>  (64) 
21

>  <original_smiles>  (64) 
C=C1CC2C3CCC4CC(=O)CCC4(C)C3CCC2C2CCC3(C)C(C)CCC3C12NC

>  <smiles>  (64) 
[H]C([H])=C1C([H])([H])C2([H])C3([H])C([H])([H])C([H])([H])C4([H])C([H])([H])C(=O)C([H])([H])C([H])([H])C4(C([H])([H])[H])C3([H])C([H])([H])C([H])([H])C2([H])C2([H])C([H])([H])C([H])([H])C3(C([H])([H])[H])C([H])(C([H])([H])[H])C([H])([H])C([H])([H])C3([H])C12[N+]([H])([H])C([H])([H])[H]

$$$$
22:0:0
     RDKit          3D

 50 54  0  0  1  0  0  0  0  0999 V2000
    3.8866    0.0254    3.7829 C   0  0  0  0  0  0  0  0  0  0  0  0
    3.9482   -0.5458    2.5725 C   0  0  0  0  0  0  0  0  0  0  0  0
    5.1809   -0.6731    1.7530 C   0  0  1  0  0  0  0  0  0  0  0  0
    5.7767   -2.1066    2.0442 C   0  0  0  0  0  0  0  0  0  0  0  0
    5.0214   -3.5094    1.7208 C   0  0  2  0  0  0  0  0  0  0  0  0
    4.7867   -4.1290    3.1289 C   0  0  0  0  0  0  0  0  0  0  0  0
    3.9045   -3.7382    3.8679 O   0  0  0  0  0  0  0  0  0  0  0  0
    5.8219   -5.1109    3.4489 C   0  0  0  0  0  0  0  0  0  0  0  0
    6.5304   -5.3291    2.3438 C   0  0  0  0  0  0  0  0  0  0  0  0
    6.0048   -4.5679    1.1359 C   0  0  2  0  0  0  0  0  0  0  0  0
    7.0579   -4.0254    0.1527 C   0  0  0  0  0  0  0  0  0  0  0  0
    8.3774   -4.2142    0.3075 C   0  0  0  0  0  0  0  0  0  0  0  0
    6.5304   -3.2581   -1.0659 C   0  0  0  0  0  0  0  0  0  0  0  0
    5.9346   -1.8603   -0.7726 C   0  0  0  0  0  0  0  0  0  0  0  0
    4.4161   -1.4525   -0.3687 C   0  0  1  0  0  0  0  0  0  0  0  0
    4.8326   -0.3141    0.3750 O   0  0  0  0  0  0  0  0  0  0  0  0
    3.6034   -1.5152   -1.6818 C   0  0  1  0  0  0  0  0  0  0  0  0
    4.1074   -0.8082   -2.9574 C   0  0  0  0  0  0  0  0  0  0  0  0
    3.3486   -3.0441   -1.8998 C   0  0  0  0  0  0  0  0  0  0  0  0
    3.5501   -4.0400   -0.6630 C   0  0  0  0  0  0  0  0  0  0  0  0
    3.6733   -3.4775    0.8299 C   0  0  1  0  0  0  0  0  0  0  0  0
    2.6175   -4.2009    1.4461 O   0  0  0  0  0  0  0  0  0  0  0  0
    3.3058   -2.0582    0.6356 C   0  0  1  0  0  0  0  0  0  0  0  0
    2.8075   -1.1307    1.8105 C   0  0  1  0  0  0  0  0  0  0  0  0
    1.5339   -1.8358    2.8595 Cl  0  0  0  0  0  0  0  0  0  0  0  0
    2.9547    0.1017    4.3244 H   0  0  0  0  0  0  0  0  0  0  0  0
    4.7659    0.4341    4.2584 H   0  0  0  0  0  0  0  0  0  0  0  0
    5.8832    0.0724    2.1138 H   0  0  0  0  0  0  0  0  0  0  0  0
    6.8111   -2.1322    1.7035 H   0  0  0  0  0  0  0  0  0  0  0  0
    5.9671   -2.0720    3.1185 H   0  0  0  0  0  0  0  0  0  0  0  0
    5.9689   -5.5378    4.4288 H   0  0  0  0  0  0  0  0  0  0  0  0
    7.3559   -6.0171    2.2902 H   0  0  0  0  0  0  0  0  0  0  0  0
    5.4829   -5.3720    0.6205 H   0  0  0  0  0  0  0  0  0  0  0  0
    8.7927   -4.7536    1.1448 H   0  0  0  0  0  0  0  0  0  0  0  0
    9.0734   -3.8154   -0.4200 H   0  0  0  0  0  0  0  0  0  0  0  0
    7.4109   -3.0601   -1.6840 H   0  0  0  0  0  0  0  0  0  0  0  0
    5.9412   -3.8632   -1.7449 H   0  0  0  0  0  0  0  0  0  0  0  0
    6.6868   -1.3542   -0.1747 H   0  0  0  0  0  0  0  0  0  0  0  0
    6.1412   -1.3133   -1.6837 H   0  0  0  0  0  0  0  0  0  0  0  0
    2.6538   -1.0093   -1.5212 H   0  0  0  0  0  0  0  0  0  0  0  0
    4.9335   -1.3287   -3.4403 H   0  0  0  0  0  0  0  0  0  0  0  0
    4.4033    0.2197   -2.7450 H   0  0  0  0  0  0  0  0  0  0  0  0
    3.3020   -0.7625   -3.6929 H   0  0  0  0  0  0  0  0  0  0  0  0
    2.3138   -3.1509   -2.2310 H   0  0  0  0  0  0  0  0  0  0  0  0
    3.9243   -3.4116   -2.7500 H   0  0  0  0  0  0  0  0  0  0  0  0
    2.6887   -4.7077   -0.7191 H   0  0  0  0  0  0  0  0  0  0  0  0
    4.3205   -4.7502   -0.9050 H   0  0  0  0  0  0  0  0  0  0  0  0
    2.5152   -3.8745    2.3376 H   0  0  0  0  0  0  0  0  0  0  0  0
    2.3260   -2.1472    0.1639 H   0  0  0  0  0  0  0  0  0  0  0  0
    2.3203   -0.2719    1.3401 H   0  0  0  0  0  0  0  0  0  0  0  0
  1  2  2  0
  1 26  1  0
  1 27  1  0
  2 24  1  0
  2  3  1  0
  3 16  1  0
  3  4  1  0
  3 28  1  1
  4  5  1  0
  4 29  1  0
  4 30  1  0
  5 10  1  0
  5 21  1  0
  5  6  1  1
  6  7  2  0
  6  8  1  0
  8  9  2  0
  8 31  1  0
  9 10  1  0
  9 32  1  0
 10 11  1  0
 10 33  1  6
 11 12  2  0
 11 13  1  0
 12 34  1  0
 12 35  1  0
 13 14  1  0
 13 36  1  0
 13 37  1  0
 15 14  1  6
 14 38  1  0
 14 39  1  0
 15 23  1  0
 15 16  1  0
 15 17  1  0
 17 18  1  0
 17 19  1  0
 17 40  1  1
 18 41  1  0
 18 42  1  0
 18 43  1  0
 19 20  1  0
 19 44  1  0
 19 45  1  0
 20 21  1  0
 20 46  1  0
 20 47  1  0
 21 22  1  1
 21 23  1  0
 22 48  1  0
 23 24  1  0
 23 49  1  6
 24 25  1  0
 24 50  1  6
M  END
>  <i_m_ct_stereo_status>  (65) 
1

>  <s_m_source_file>  (65) 
/var/tmp/pbs.5076255.sched01/tmpn440o9cr/0yczfkg0t.sdf

>  <i_m_source_file_index>  (65) 
27

>  <i_lp_mmshare_version>  (65) 
48012

>  <i_f3d_flags>  (65) 
0

>  <s_epik_input>  (65) 
W0NIM11bQ0BIXTFbQ0gyXVtDSDJdW0NAXTIoW09IXSlbQ0BASF0oW0NAQEhdKENsKUMoPVtDSDJdKVtDQEhdKE8zKVtDSDJdNClbQ0BAXTEzW0NIMl1bQ0gyXUMoPVtDSDJdKVtDQEhdKFtDQF0yNDUpW0NIXT1bQ0hdQzU9Tw==

>  <s_epik_cmdline>  (65) 
J2VwaWtfcHl0aG9uJywgJy1waHQnLCAnMi4wJywgJy1waCcsICc3LjAnLCAnLXRuJywgJzgnLCAnLW1hJywgJzIwMCcsICctaW1hZScsICc8aW5maWxlLm1hZT4nLCAnLW9tYWUnLCAnPG91dGZpbGUubWFlPic=

>  <r_lp_tautomer_probability>  (65) 
1

>  <r_epik_Ionization_Penalty>  (65) 
1.50857e-07

>  <r_epik_Ionization_Penalty_Charging>  (65) 
0

>  <r_epik_Ionization_Penalty_Neutral>  (65) 
1.50857e-07

>  <r_epik_State_Penalty>  (65) 
-0

>  <r_epik_Charging_Adjusted_Penalty>  (65) 
0

>  <i_epik_Tot_Q>  (65) 
0

>  <i_epik_Tot_abs_Q>  (65) 
0

>  <s_lp_Force_Field>  (65) 
OPLS3e

>  <r_lp_Energy>  (65) 
149.457

>  <b_lp_Chiralities_Consistent>  (65) 
1

>  <s_lp_Variant>  (65) 
22:0-1

>  <s_i_glide_gridfile>  (65) 
pfpi4k_grid

>  <i_i_glide_lignum>  (65) 
27

>  <i_i_glide_rotatable_bonds>  (65) 
1

>  <r_i_docking_score>  (65) 
-3.59639

>  <r_i_glide_ligand_efficiency>  (65) 
-0.143856

>  <r_i_glide_ligand_efficiency_sa>  (65) 
-0.420637

>  <r_i_glide_ligand_efficiency_ln>  (65) 
-0.852453

>  <r_i_glide_gscore>  (65) 
-3.59639

>  <r_i_glide_lipo>  (65) 
-0.85687

>  <r_i_glide_hbond>  (65) 
0

>  <r_i_glide_metal>  (65) 
-0

>  <r_i_glide_rewards>  (65) 
-1.4702

>  <r_i_glide_evdw>  (65) 
-27.097

>  <r_i_glide_ecoul>  (65) 
0.570143

>  <r_i_glide_erotb>  (65) 
0

>  <r_i_glide_esite>  (65) 
0

>  <r_i_glide_emodel>  (65) 
-37.6407

>  <r_i_glide_energy>  (65) 
-26.5268

>  <r_i_glide_einternal>  (65) 
0.00673758

>  <r_i_glide_intrahb_reward>  (65) 
-0.5

>  <i_i_glide_confnum>  (65) 
1

>  <i_i_glide_posenum>  (65) 
8

>  <r_i_glide_eff_state_penalty>  (65) 
0

>  <ligand_id>  (65) 
22

>  <original_smiles>  (65) 
C=C1C2CC34C(=O)C=CC3C(=C)CCC3(O2)C(C)CCC4(O)C3C1Cl

>  <smiles>  (65) 
[H]OC12C([H])([H])C([H])([H])C([H])(C([H])([H])[H])C34OC([H])(C(=C([H])[H])C([H])(Cl)C31[H])C([H])([H])C21C(=O)C([H])=C([H])C1([H])C(=C([H])[H])C([H])([H])C4([H])[H]

$$$$
22:0:1
     RDKit          3D

 50 54  0  0  1  0  0  0  0  0999 V2000
    3.9903    0.4641    3.9362 C   0  0  0  0  0  0  0  0  0  0  0  0
    4.0071   -0.2695    2.8108 C   0  0  0  0  0  0  0  0  0  0  0  0
    5.2411   -0.6975    2.0933 C   0  0  1  0  0  0  0  0  0  0  0  0
    5.5696   -2.1611    2.6068 C   0  0  0  0  0  0  0  0  0  0  0  0
    4.6143   -3.4600    2.4115 C   0  0  2  0  0  0  0  0  0  0  0  0
    4.2388   -3.8221    3.8799 C   0  0  0  0  0  0  0  0  0  0  0  0
    3.4266   -3.1882    4.5585 O   0  0  0  0  0  0  0  0  0  0  0  0
    5.0850   -4.8917    4.3793 C   0  0  0  0  0  0  0  0  0  0  0  0
    5.7907   -5.3772    3.3590 C   0  0  0  0  0  0  0  0  0  0  0  0
    5.4419   -4.7343    2.0334 C   0  0  2  0  0  0  0  0  0  0  0  0
    6.5962   -4.5068    1.0475 C   0  0  0  0  0  0  0  0  0  0  0  0
    7.8626   -4.8798    1.3015 C   0  0  0  0  0  0  0  0  0  0  0  0
    6.2516   -3.8302   -0.2833 C   0  0  0  0  0  0  0  0  0  0  0  0
    5.8959   -2.3220   -0.2100 C   0  0  0  0  0  0  0  0  0  0  0  0
    4.4542   -1.6234    0.0446 C   0  0  1  0  0  0  0  0  0  0  0  0
    5.0110   -0.4659    0.6592 O   0  0  0  0  0  0  0  0  0  0  0  0
    3.7023   -1.7429   -1.3013 C   0  0  1  0  0  0  0  0  0  0  0  0
    4.3595   -1.2996   -2.6222 C   0  0  0  0  0  0  0  0  0  0  0  0
    3.1838   -3.2299   -1.3412 C   0  0  0  0  0  0  0  0  0  0  0  0
    3.1741   -4.0765    0.0176 C   0  0  0  0  0  0  0  0  0  0  0  0
    3.3361   -3.3326    1.4314 C   0  0  1  0  0  0  0  0  0  0  0  0
    2.1794   -3.8166    2.0866 O   0  0  0  0  0  0  0  0  0  0  0  0
    3.2040   -1.9021    1.0379 C   0  0  1  0  0  0  0  0  0  0  0  0
    2.8136   -0.7610    2.0517 C   0  0  1  0  0  0  0  0  0  0  0  0
    1.3923   -1.1141    3.0826 Cl  0  0  0  0  0  0  0  0  0  0  0  0
    3.0627    0.7580    4.4035 H   0  0  0  0  0  0  0  0  0  0  0  0
    4.9056    0.7884    4.4101 H   0  0  0  0  0  0  0  0  0  0  0  0
    6.0529   -0.0409    2.4040 H   0  0  0  0  0  0  0  0  0  0  0  0
    6.5902   -2.3925    2.3284 H   0  0  0  0  0  0  0  0  0  0  0  0
    5.7314   -2.0071    3.6754 H   0  0  0  0  0  0  0  0  0  0  0  0
    5.1101   -5.2133    5.4110 H   0  0  0  0  0  0  0  0  0  0  0  0
    6.4862   -6.1974    3.4424 H   0  0  0  0  0  0  0  0  0  0  0  0
    4.8037   -5.4970    1.5981 H   0  0  0  0  0  0  0  0  0  0  0  0
    8.1486   -5.3549    2.2270 H   0  0  0  0  0  0  0  0  0  0  0  0
    8.6488   -4.7059    0.5812 H   0  0  0  0  0  0  0  0  0  0  0  0
    7.1805   -3.8562   -0.8595 H   0  0  0  0  0  0  0  0  0  0  0  0
    5.6029   -4.4233   -0.9169 H   0  0  0  0  0  0  0  0  0  0  0  0
    6.6988   -1.8709    0.3656 H   0  0  0  0  0  0  0  0  0  0  0  0
    6.2384   -1.9387   -1.1665 H   0  0  0  0  0  0  0  0  0  0  0  0
    2.8588   -1.0599   -1.2572 H   0  0  0  0  0  0  0  0  0  0  0  0
    5.1083   -2.0050   -2.9776 H   0  0  0  0  0  0  0  0  0  0  0  0
    4.8088   -0.3109   -2.5208 H   0  0  0  0  0  0  0  0  0  0  0  0
    3.5982   -1.2349   -3.4024 H   0  0  0  0  0  0  0  0  0  0  0  0
    2.1622   -3.2037   -1.7269 H   0  0  0  0  0  0  0  0  0  0  0  0
    3.7384   -3.7922   -2.0931 H   0  0  0  0  0  0  0  0  0  0  0  0
    2.2199   -4.6086   -0.0106 H   0  0  0  0  0  0  0  0  0  0  0  0
    3.8355   -4.9237   -0.0786 H   0  0  0  0  0  0  0  0  0  0  0  0
    1.4215   -3.3960    1.7066 H   0  0  0  0  0  0  0  0  0  0  0  0
    2.2459   -1.8770    0.5153 H   0  0  0  0  0  0  0  0  0  0  0  0
    2.5115    0.0996    1.4523 H   0  0  0  0  0  0  0  0  0  0  0  0
  1  2  2  0
  1 26  1  0
  1 27  1  0
  2 24  1  0
  2  3  1  0
  3 16  1  0
  3  4  1  0
  3 28  1  1
  4  5  1  0
  4 29  1  0
  4 30  1  0
  5 10  1  0
  5 21  1  0
  5  6  1  1
  6  7  2  0
  6  8  1  0
  8  9  2  0
  8 31  1  0
  9 10  1  0
  9 32  1  0
 10 11  1  0
 10 33  1  6
 11 12  2  0
 11 13  1  0
 12 34  1  0
 12 35  1  0
 13 14  1  0
 13 36  1  0
 13 37  1  0
 15 14  1  6
 14 38  1  0
 14 39  1  0
 15 23  1  0
 15 16  1  0
 15 17  1  0
 17 18  1  0
 17 19  1  0
 17 40  1  1
 18 41  1  0
 18 42  1  0
 18 43  1  0
 19 20  1  0
 19 44  1  0
 19 45  1  0
 20 21  1  0
 20 46  1  0
 20 47  1  0
 21 22  1  1
 21 23  1  0
 22 48  1  0
 23 24  1  0
 23 49  1  6
 24 25  1  0
 24 50  1  6
M  END
>  <i_m_ct_stereo_status>  (66) 
1

>  <s_m_source_file>  (66) 
/var/tmp/pbs.5076255.sched01/tmpn440o9cr/0yczfkg0t.sdf

>  <i_m_source_file_index>  (66) 
27

>  <i_lp_mmshare_version>  (66) 
48012

>  <i_f3d_flags>  (66) 
0

>  <s_epik_input>  (66) 
W0NIM11bQ0BIXTFbQ0gyXVtDSDJdW0NAXTIoW09IXSlbQ0BASF0oW0NAQEhdKENsKUMoPVtDSDJdKVtDQEhdKE8zKVtDSDJdNClbQ0BAXTEzW0NIMl1bQ0gyXUMoPVtDSDJdKVtDQEhdKFtDQF0yNDUpW0NIXT1bQ0hdQzU9Tw==

>  <s_epik_cmdline>  (66) 
J2VwaWtfcHl0aG9uJywgJy1waHQnLCAnMi4wJywgJy1waCcsICc3LjAnLCAnLXRuJywgJzgnLCAnLW1hJywgJzIwMCcsICctaW1hZScsICc8aW5maWxlLm1hZT4nLCAnLW9tYWUnLCAnPG91dGZpbGUubWFlPic=

>  <r_lp_tautomer_probability>  (66) 
1

>  <r_epik_Ionization_Penalty>  (66) 
1.50857e-07

>  <r_epik_Ionization_Penalty_Charging>  (66) 
0

>  <r_epik_Ionization_Penalty_Neutral>  (66) 
1.50857e-07

>  <r_epik_State_Penalty>  (66) 
-0

>  <r_epik_Charging_Adjusted_Penalty>  (66) 
0

>  <i_epik_Tot_Q>  (66) 
0

>  <i_epik_Tot_abs_Q>  (66) 
0

>  <s_lp_Force_Field>  (66) 
OPLS3e

>  <r_lp_Energy>  (66) 
149.457

>  <b_lp_Chiralities_Consistent>  (66) 
1

>  <s_lp_Variant>  (66) 
22:0-1

>  <s_i_glide_gridfile>  (66) 
pfpi4k_grid

>  <i_i_glide_lignum>  (66) 
27

>  <i_i_glide_rotatable_bonds>  (66) 
1

>  <r_i_docking_score>  (66) 
-3.09788

>  <r_i_glide_ligand_efficiency>  (66) 
-0.123915

>  <r_i_glide_ligand_efficiency_sa>  (66) 
-0.362331

>  <r_i_glide_ligand_efficiency_ln>  (66) 
-0.734291

>  <r_i_glide_gscore>  (66) 
-3.09788

>  <r_i_glide_lipo>  (66) 
-0.630438

>  <r_i_glide_hbond>  (66) 
0

>  <r_i_glide_metal>  (66) 
-0

>  <r_i_glide_rewards>  (66) 
-0.953068

>  <r_i_glide_evdw>  (66) 
-24.6077

>  <r_i_glide_ecoul>  (66) 
-1.89327

>  <r_i_glide_erotb>  (66) 
0

>  <r_i_glide_esite>  (66) 
0

>  <r_i_glide_emodel>  (66) 
-31.5502

>  <r_i_glide_energy>  (66) 
-26.501

>  <r_i_glide_einternal>  (66) 
0.274038

>  <r_i_glide_intrahb_reward>  (66) 
-0

>  <i_i_glide_confnum>  (66) 
2

>  <i_i_glide_posenum>  (66) 
34

>  <r_i_glide_eff_state_penalty>  (66) 
0

>  <ligand_id>  (66) 
22

>  <original_smiles>  (66) 
C=C1C2CC34C(=O)C=CC3C(=C)CCC3(O2)C(C)CCC4(O)C3C1Cl

>  <smiles>  (66) 
[H]OC12C([H])([H])C([H])([H])C([H])(C([H])([H])[H])C34OC([H])(C(=C([H])[H])C([H])(Cl)C31[H])C([H])([H])C21C(=O)C([H])=C([H])C1([H])C(=C([H])[H])C([H])([H])C4([H])[H]

$$$$
22:0:2
     RDKit          3D

 50 54  0  0  1  0  0  0  0  0999 V2000
    3.8302    0.0078    3.7956 C   0  0  0  0  0  0  0  0  0  0  0  0
    3.8946   -0.5595    2.5795 C   0  0  0  0  0  0  0  0  0  0  0  0
    5.1298   -0.6690    1.7580 C   0  0  1  0  0  0  0  0  0  0  0  0
    5.7422   -2.1020    2.0477 C   0  0  0  0  0  0  0  0  0  0  0  0
    4.9985   -3.5119    1.7173 C   0  0  2  0  0  0  0  0  0  0  0  0
    4.7858   -4.1330    3.1245 C   0  0  0  0  0  0  0  0  0  0  0  0
    3.9223   -3.7452    3.9110 O   0  0  0  0  0  0  0  0  0  0  0  0
    5.8195   -5.1057    3.4331 C   0  0  0  0  0  0  0  0  0  0  0  0
    6.5298   -5.3147    2.3235 C   0  0  0  0  0  0  0  0  0  0  0  0
    5.9967   -4.5566    1.1241 C   0  0  2  0  0  0  0  0  0  0  0  0
    7.0349   -3.9970    0.1385 C   0  0  0  0  0  0  0  0  0  0  0  0
    8.3601   -4.1696    0.2870 C   0  0  0  0  0  0  0  0  0  0  0  0
    6.4971   -3.2350   -1.0763 C   0  0  0  0  0  0  0  0  0  0  0  0
    5.8897   -1.8435   -0.7741 C   0  0  0  0  0  0  0  0  0  0  0  0
    4.3698   -1.4527   -0.3627 C   0  0  1  0  0  0  0  0  0  0  0  0
    4.7701   -0.3098    0.3815 O   0  0  0  0  0  0  0  0  0  0  0  0
    3.5647   -1.5193   -1.6793 C   0  0  1  0  0  0  0  0  0  0  0  0
    4.0488   -0.8010   -2.9549 C   0  0  0  0  0  0  0  0  0  0  0  0
    3.3076   -3.0535   -1.9024 C   0  0  0  0  0  0  0  0  0  0  0  0
    3.5333   -4.0508   -0.6700 C   0  0  0  0  0  0  0  0  0  0  0  0
    3.6484   -3.4889    0.8284 C   0  0  1  0  0  0  0  0  0  0  0  0
    2.6118   -4.2372    1.4425 O   0  0  0  0  0  0  0  0  0  0  0  0
    3.2606   -2.0725    0.6413 C   0  0  1  0  0  0  0  0  0  0  0  0
    2.7539   -1.1568    1.8216 C   0  0  1  0  0  0  0  0  0  0  0  0
    1.4903   -1.8617    2.8764 Cl  0  0  0  0  0  0  0  0  0  0  0  0
    2.8998    0.0699    4.3390 H   0  0  0  0  0  0  0  0  0  0  0  0
    4.7069    0.4250    4.2690 H   0  0  0  0  0  0  0  0  0  0  0  0
    5.8228    0.0858    2.1178 H   0  0  0  0  0  0  0  0  0  0  0  0
    6.7719   -2.1101    1.7025 H   0  0  0  0  0  0  0  0  0  0  0  0
    5.9354   -2.0628    3.1183 H   0  0  0  0  0  0  0  0  0  0  0  0
    5.9778   -5.5380    4.4109 H   0  0  0  0  0  0  0  0  0  0  0  0
    7.3664   -5.9935    2.2639 H   0  0  0  0  0  0  0  0  0  0  0  0
    5.4793   -5.3594    0.6053 H   0  0  0  0  0  0  0  0  0  0  0  0
    8.7814   -4.7071    1.1210 H   0  0  0  0  0  0  0  0  0  0  0  0
    9.0490   -3.7626   -0.4409 H   0  0  0  0  0  0  0  0  0  0  0  0
    7.3725   -3.0236   -1.6979 H   0  0  0  0  0  0  0  0  0  0  0  0
    5.9143   -3.8459   -1.7560 H   0  0  0  0  0  0  0  0  0  0  0  0
    6.6392   -1.3299   -0.1766 H   0  0  0  0  0  0  0  0  0  0  0  0
    6.0865   -1.2862   -1.6828 H   0  0  0  0  0  0  0  0  0  0  0  0
    2.6303   -1.0077   -1.5051 H   0  0  0  0  0  0  0  0  0  0  0  0
    4.8801   -1.3047   -3.4484 H   0  0  0  0  0  0  0  0  0  0  0  0
    4.3269    0.2306   -2.7387 H   0  0  0  0  0  0  0  0  0  0  0  0
    3.2351   -0.7647   -3.6810 H   0  0  0  0  0  0  0  0  0  0  0  0
    2.2737   -3.1596   -2.2267 H   0  0  0  0  0  0  0  0  0  0  0  0
    3.8865   -3.4126   -2.7552 H   0  0  0  0  0  0  0  0  0  0  0  0
    2.6748   -4.7256   -0.7247 H   0  0  0  0  0  0  0  0  0  0  0  0
    4.3102   -4.7535   -0.9194 H   0  0  0  0  0  0  0  0  0  0  0  0
    2.8972   -5.1364    1.5232 H   0  0  0  0  0  0  0  0  0  0  0  0
    2.2842   -2.1715    0.1679 H   0  0  0  0  0  0  0  0  0  0  0  0
    2.2668   -0.3023    1.3542 H   0  0  0  0  0  0  0  0  0  0  0  0
  1  2  2  0
  1 26  1  0
  1 27  1  0
  2 24  1  0
  2  3  1  0
  3 16  1  0
  3  4  1  0
  3 28  1  1
  4  5  1  0
  4 29  1  0
  4 30  1  0
  5 10  1  0
  5 21  1  0
  5  6  1  1
  6  7  2  0
  6  8  1  0
  8  9  2  0
  8 31  1  0
  9 10  1  0
  9 32  1  0
 10 11  1  0
 10 33  1  6
 11 12  2  0
 11 13  1  0
 12 34  1  0
 12 35  1  0
 13 14  1  0
 13 36  1  0
 13 37  1  0
 15 14  1  6
 14 38  1  0
 14 39  1  0
 15 23  1  0
 15 16  1  0
 15 17  1  0
 17 18  1  0
 17 19  1  0
 17 40  1  1
 18 41  1  0
 18 42  1  0
 18 43  1  0
 19 20  1  0
 19 44  1  0
 19 45  1  0
 20 21  1  0
 20 46  1  0
 20 47  1  0
 21 22  1  1
 21 23  1  0
 22 48  1  0
 23 24  1  0
 23 49  1  6
 24 25  1  0
 24 50  1  6
M  END
>  <i_m_ct_stereo_status>  (67) 
1

>  <s_m_source_file>  (67) 
/var/tmp/pbs.5076255.sched01/tmpn440o9cr/0yczfkg0t.sdf

>  <i_m_source_file_index>  (67) 
27

>  <i_lp_mmshare_version>  (67) 
48012

>  <i_f3d_flags>  (67) 
0

>  <s_epik_input>  (67) 
W0NIM11bQ0BIXTFbQ0gyXVtDSDJdW0NAXTIoW09IXSlbQ0BASF0oW0NAQEhdKENsKUMoPVtDSDJdKVtDQEhdKE8zKVtDSDJdNClbQ0BAXTEzW0NIMl1bQ0gyXUMoPVtDSDJdKVtDQEhdKFtDQF0yNDUpW0NIXT1bQ0hdQzU9Tw==

>  <s_epik_cmdline>  (67) 
J2VwaWtfcHl0aG9uJywgJy1waHQnLCAnMi4wJywgJy1waCcsICc3LjAnLCAnLXRuJywgJzgnLCAnLW1hJywgJzIwMCcsICctaW1hZScsICc8aW5maWxlLm1hZT4nLCAnLW9tYWUnLCAnPG91dGZpbGUubWFlPic=

>  <r_lp_tautomer_probability>  (67) 
1

>  <r_epik_Ionization_Penalty>  (67) 
1.50857e-07

>  <r_epik_Ionization_Penalty_Charging>  (67) 
0

>  <r_epik_Ionization_Penalty_Neutral>  (67) 
1.50857e-07

>  <r_epik_State_Penalty>  (67) 
-0

>  <r_epik_Charging_Adjusted_Penalty>  (67) 
0

>  <i_epik_Tot_Q>  (67) 
0

>  <i_epik_Tot_abs_Q>  (67) 
0

>  <s_lp_Force_Field>  (67) 
OPLS3e

>  <r_lp_Energy>  (67) 
149.457

>  <b_lp_Chiralities_Consistent>  (67) 
1

>  <s_lp_Variant>  (67) 
22:0-1

>  <s_i_glide_gridfile>  (67) 
pfpi4k_grid

>  <i_i_glide_lignum>  (67) 
27

>  <i_i_glide_rotatable_bonds>  (67) 
1

>  <r_i_docking_score>  (67) 
-2.98911

>  <r_i_glide_ligand_efficiency>  (67) 
-0.119565

>  <r_i_glide_ligand_efficiency_sa>  (67) 
-0.349609

>  <r_i_glide_ligand_efficiency_ln>  (67) 
-0.708509

>  <r_i_glide_gscore>  (67) 
-2.98911

>  <r_i_glide_lipo>  (67) 
-0.850412

>  <r_i_glide_hbond>  (67) 
0

>  <r_i_glide_metal>  (67) 
-0

>  <r_i_glide_rewards>  (67) 
-0.970096

>  <r_i_glide_evdw>  (67) 
-27.1502

>  <r_i_glide_ecoul>  (67) 
1.25938

>  <r_i_glide_erotb>  (67) 
0

>  <r_i_glide_esite>  (67) 
0

>  <r_i_glide_emodel>  (67) 
-30.949

>  <r_i_glide_energy>  (67) 
-25.8909

>  <r_i_glide_einternal>  (67) 
0.0166469

>  <r_i_glide_intrahb_reward>  (67) 
-0

>  <i_i_glide_confnum>  (67) 
2

>  <i_i_glide_posenum>  (67) 
1

>  <r_i_glide_eff_state_penalty>  (67) 
0

>  <ligand_id>  (67) 
22

>  <original_smiles>  (67) 
C=C1C2CC34C(=O)C=CC3C(=C)CCC3(O2)C(C)CCC4(O)C3C1Cl

>  <smiles>  (67) 
[H]OC12C([H])([H])C([H])([H])C([H])(C([H])([H])[H])C34OC([H])(C(=C([H])[H])C([H])(Cl)C31[H])C([H])([H])C21C(=O)C([H])=C([H])C1([H])C(=C([H])[H])C([H])([H])C4([H])[H]

$$$$
23:0:0
     RDKit          3D

 63 70  0  0  1  0  0  0  0  0999 V2000
    3.3799   -2.0200    8.1422 C   0  0  0  0  0  0  0  0  0  0  0  0
    2.1200   -1.5920    7.5350 N   0  0  0  0  0  0  0  0  0  0  0  0
    0.9638   -2.3461    7.3034 C   0  0  0  0  0  0  0  0  0  0  0  0
    0.2601   -1.6098    6.3898 C   0  0  0  0  0  0  0  0  0  0  0  0
    0.7619   -0.3201    6.3880 C   0  0  0  0  0  0  0  0  0  0  0  0
    2.0260   -0.4049    6.9017 C   0  0  0  0  0  0  0  0  0  0  0  0
    3.1042    0.2734    6.2223 C   0  0  0  0  0  0  0  0  0  0  0  0
    3.8539    1.1095    6.7606 O   0  0  0  0  0  0  0  0  0  0  0  0
    3.2314   -0.1023    4.7276 C   0  0  1  0  0  0  0  0  0  0  0  0
    4.6508   -0.2042    4.6651 O   0  0  0  0  0  0  0  0  0  0  0  0
    2.6804   -1.4624    4.1243 C   0  0  2  0  0  0  0  0  0  0  0  0
    3.3321   -1.3499    2.6935 C   0  0  0  0  0  0  0  0  0  0  0  0
    3.3917    0.1775    2.3872 C   0  0  0  0  0  0  0  0  0  0  0  0
    2.6760    0.8802    3.5996 C   0  0  2  0  0  0  0  0  0  0  0  0
    3.1607    2.3530    3.7855 C   0  0  0  0  0  0  0  0  0  0  0  0
    2.2872    3.4296    4.4956 C   0  0  0  0  0  0  0  0  0  0  0  0
    1.8965    3.2292    5.9599 C   0  0  1  0  0  0  0  0  0  0  0  0
    0.5145    3.5565    6.2005 O   0  0  0  0  0  0  0  0  0  0  0  0
    0.9313    2.2897    6.6852 C   0  0  1  0  0  0  0  0  0  0  0  0
    0.1415    1.0765    6.1723 C   0  0  1  0  0  0  0  0  0  0  0  0
   -0.6828    1.2954    4.8930 C   0  0  0  0  0  0  0  0  0  0  0  0
    0.0895    1.7387    3.7053 N   0  0  2  0  0  0  0  0  0  0  0  0
   -0.8730    2.2529    2.6732 C   0  0  0  0  0  0  0  0  0  0  0  0
   -1.4955    3.6023    3.0368 C   0  0  0  0  0  0  0  0  0  0  0  0
   -2.6170    3.7024    4.0492 C   0  0  0  0  0  0  0  0  0  0  0  0
   -2.9140    3.9356    2.5966 C   0  0  0  0  0  0  0  0  0  0  0  0
    1.1301    0.8041    3.1268 C   0  0  2  0  0  0  0  0  0  0  0  0
    0.5879   -0.6138    2.8934 C   0  0  0  0  0  0  0  0  0  0  0  0
    1.1075   -1.6578    3.8907 C   0  0  2  0  0  0  0  0  0  0  0  0
    0.0229   -2.0587    4.9641 C   0  0  0  0  0  0  0  0  0  0  0  0
    3.3703   -3.1094    8.1750 H   0  0  0  0  0  0  0  0  0  0  0  0
    3.4489   -1.6418    9.1633 H   0  0  0  0  0  0  0  0  0  0  0  0
    4.2543   -1.7190    7.5611 H   0  0  0  0  0  0  0  0  0  0  0  0
    1.0143   -3.4101    7.5116 H   0  0  0  0  0  0  0  0  0  0  0  0
    4.8679   -0.4230    3.7737 H   0  0  0  0  0  0  0  0  0  0  0  0
    3.0922   -2.3275    4.6358 H   0  0  0  0  0  0  0  0  0  0  0  0
    4.3411   -1.7697    2.6680 H   0  0  0  0  0  0  0  0  0  0  0  0
    2.8057   -1.8939    1.9060 H   0  0  0  0  0  0  0  0  0  0  0  0
    4.4316    0.5034    2.3068 H   0  0  0  0  0  0  0  0  0  0  0  0
    2.9840    0.4087    1.3961 H   0  0  0  0  0  0  0  0  0  0  0  0
    4.1394    2.3375    4.2629 H   0  0  0  0  0  0  0  0  0  0  0  0
    3.3481    2.7573    2.7902 H   0  0  0  0  0  0  0  0  0  0  0  0
    2.8831    4.3403    4.4841 H   0  0  0  0  0  0  0  0  0  0  0  0
    1.4281    3.7387    3.9040 H   0  0  0  0  0  0  0  0  0  0  0  0
    2.6254    3.6735    6.6432 H   0  0  0  0  0  0  0  0  0  0  0  0
    1.0340    2.2910    7.7718 H   0  0  0  0  0  0  0  0  0  0  0  0
   -0.6507    0.9732    6.9085 H   0  0  0  0  0  0  0  0  0  0  0  0
   -1.2684    0.3870    4.6738 H   0  0  0  0  0  0  0  0  0  0  0  0
   -1.3846    2.0565    5.1538 H   0  0  0  0  0  0  0  0  0  0  0  0
   -0.4103    2.4057    1.6944 H   0  0  0  0  0  0  0  0  0  0  0  0
   -1.6645    1.5134    2.5180 H   0  0  0  0  0  0  0  0  0  0  0  0
   -0.7996    4.4379    2.9651 H   0  0  0  0  0  0  0  0  0  0  0  0
   -3.0498    2.7883    4.4678 H   0  0  0  0  0  0  0  0  0  0  0  0
   -2.5500    4.5426    4.7273 H   0  0  0  0  0  0  0  0  0  0  0  0
   -3.1899    4.9516    2.3188 H   0  0  0  0  0  0  0  0  0  0  0  0
   -3.4953    3.1611    2.1035 H   0  0  0  0  0  0  0  0  0  0  0  0
    1.1969    1.2059    2.1113 H   0  0  0  0  0  0  0  0  0  0  0  0
   -0.4997   -0.6004    2.9060 H   0  0  0  0  0  0  0  0  0  0  0  0
    0.7971   -0.9083    1.8591 H   0  0  0  0  0  0  0  0  0  0  0  0
    1.0901   -2.5442    3.2686 H   0  0  0  0  0  0  0  0  0  0  0  0
    0.0772   -3.1629    5.0244 H   0  0  0  0  0  0  0  0  0  0  0  0
   -0.9932   -1.8497    4.6208 H   0  0  0  0  0  0  0  0  0  0  0  0
    0.6326    2.5385    4.0023 H   0  0  0  0  0  0  0  0  0  0  0  0
  1  2  1  0
  1 31  1  0
  1 32  1  0
  1 33  1  0
  2  6  1  0
  2  3  1  0
  3  4  2  0
  3 34  1  0
  4 30  1  0
  4  5  1  0
  5 20  1  0
  5  6  2  0
  6  7  1  0
  7  8  2  0
  7  9  1  0
  9 14  1  0
  9 10  1  6
  9 11  1  0
 10 35  1  0
 11 29  1  0
 11 12  1  0
 11 36  1  1
 12 13  1  0
 12 37  1  0
 12 38  1  0
 14 13  1  6
 13 39  1  0
 13 40  1  0
 14 27  1  0
 14 15  1  0
 15 16  1  0
 15 41  1  0
 15 42  1  0
 16 17  1  0
 16 43  1  0
 16 44  1  0
 17 19  1  0
 17 18  1  0
 17 45  1  1
 18 19  1  0
 19 20  1  0
 19 46  1  1
 20 21  1  0
 20 47  1  1
 21 22  1  0
 21 48  1  0
 21 49  1  0
 22 23  1  0
 22 27  1  0
 22 63  1  1
 23 24  1  0
 23 50  1  0
 23 51  1  0
 24 26  1  0
 24 25  1  0
 24 52  1  0
 25 26  1  0
 25 53  1  0
 25 54  1  0
 26 55  1  0
 26 56  1  0
 27 28  1  0
 27 57  1  6
 28 29  1  0
 28 58  1  0
 28 59  1  0
 29 30  1  0
 29 60  1  6
 30 61  1  0
 30 62  1  0
M  CHG  1  22   1
M  END
>  <i_m_ct_stereo_status>  (68) 
1

>  <s_m_source_file>  (68) 
/var/tmp/pbs.5076255.sched01/tmpn440o9cr/0yczfkg0t.sdf

>  <i_m_source_file_index>  (68) 
28

>  <i_lp_mmshare_version>  (68) 
48012

>  <i_f3d_flags>  (68) 
0

>  <s_epik_input>  (68) 
Tz1DMWMybihbQ0gzXSlbY0hdYyhbQ0gyXTMpYzJbQ0BASF0oW0NASF00W0NASF0oTzQpW0NIMl1bQ0gyXTUpW0NIMl1OKFtDSDJdW0NIXTZbQ0gyXVtDSDJdNilbQ0BASF03W0NIMl1bQ0BIXTNbQ0BIXShbQ0BdMShbQ0BdNTc4KVtPSF0pW0NIMl1bQ0gyXTg=

>  <s_epik_cmdline>  (68) 
J2VwaWtfcHl0aG9uJywgJy1waHQnLCAnMi4wJywgJy1waCcsICc3LjAnLCAnLXRuJywgJzgnLCAnLW1hJywgJzIwMCcsICctaW1hZScsICc8aW5maWxlLm1hZT4nLCAnLW9tYWUnLCAnPG91dGZpbGUubWFlPic=

>  <r_epik_Ionization_Penalty>  (68) 
0.0110546

>  <r_epik_Ionization_Penalty_Charging>  (68) 
0.0110534

>  <r_epik_Ionization_Penalty_Neutral>  (68) 
1.14374e-06

>  <r_epik_State_Penalty>  (68) 
0.00848631

>  <r_epik_Charging_Adjusted_Penalty>  (68) 
0.0195397

>  <i_epik_Tot_Q>  (68) 
1

>  <i_epik_Tot_abs_Q>  (68) 
1

>  <s_lp_Force_Field>  (68) 
OPLS3e

>  <r_lp_Energy>  (68) 
192.452

>  <b_lp_Chiralities_Consistent>  (68) 
1

>  <s_lp_Variant>  (68) 
23:0-1

>  <s_i_glide_gridfile>  (68) 
pfpi4k_grid

>  <i_i_glide_lignum>  (68) 
28

>  <i_i_glide_rotatable_bonds>  (68) 
3

>  <r_i_docking_score>  (68) 
-1.95935

>  <r_i_glide_ligand_efficiency>  (68) 
-0.0653117

>  <r_i_glide_ligand_efficiency_sa>  (68) 
-0.202939

>  <r_i_glide_ligand_efficiency_ln>  (68) 
-0.445186

>  <r_i_glide_gscore>  (68) 
-1.95935

>  <r_i_glide_lipo>  (68) 
-0.0323735

>  <r_i_glide_hbond>  (68) 
0

>  <r_i_glide_metal>  (68) 
-0

>  <r_i_glide_rewards>  (68) 
-0.616765

>  <r_i_glide_evdw>  (68) 
-16.792

>  <r_i_glide_ecoul>  (68) 
-4.5054

>  <r_i_glide_erotb>  (68) 
0.234811

>  <r_i_glide_esite>  (68) 
-0.0296178

>  <r_i_glide_emodel>  (68) 
-21.4681

>  <r_i_glide_energy>  (68) 
-21.2974

>  <r_i_glide_einternal>  (68) 
2.18656

>  <r_i_glide_intrahb_reward>  (68) 
-0

>  <i_i_glide_confnum>  (68) 
1

>  <i_i_glide_posenum>  (68) 
30

>  <r_i_glide_eff_state_penalty>  (68) 
0

>  <ligand_id>  (68) 
23

>  <original_smiles>  (68) 
Cn1cc2c3c1C(=O)C1(O)C4CCC15CCC1OC1C3CN(CC1CC1)C5CC4C2

>  <smiles>  (68) 
[H]OC12C(=O)c3c4c(c([H])n3C([H])([H])[H])C([H])([H])C3([H])C([H])([H])C5([H])C1(C([H])([H])C([H])([H])C1([H])OC1([H])C4([H])C([H])([H])[N+]5([H])C([H])([H])C1([H])C([H])([H])C1([H])[H])C([H])([H])C([H])([H])C23[H]

$$$$
23:0:1
     RDKit          3D

 63 70  0  0  1  0  0  0  0  0999 V2000
    3.6307   -1.0574    7.1090 C   0  0  0  0  0  0  0  0  0  0  0  0
    2.2523   -0.5703    7.1466 N   0  0  0  0  0  0  0  0  0  0  0  0
    1.0949   -1.3159    7.4337 C   0  0  0  0  0  0  0  0  0  0  0  0
    0.0725   -0.5268    6.9663 C   0  0  0  0  0  0  0  0  0  0  0  0
    0.5633    0.7576    6.7594 C   0  0  0  0  0  0  0  0  0  0  0  0
    1.9297    0.6513    6.7038 C   0  0  0  0  0  0  0  0  0  0  0  0
    2.6256    1.3385    5.6180 C   0  0  0  0  0  0  0  0  0  0  0  0
    3.5582    2.1194    5.7973 O   0  0  0  0  0  0  0  0  0  0  0  0
    2.0608    1.0117    4.2064 C   0  0  1  0  0  0  0  0  0  0  0  0
    3.2993    0.8913    3.5111 O   0  0  0  0  0  0  0  0  0  0  0  0
    1.2534   -0.3068    3.8639 C   0  0  2  0  0  0  0  0  0  0  0  0
    1.1962   -0.1289    2.3009 C   0  0  0  0  0  0  0  0  0  0  0  0
    1.1727    1.4100    2.0633 C   0  0  0  0  0  0  0  0  0  0  0  0
    1.0938    2.0514    3.4964 C   0  0  2  0  0  0  0  0  0  0  0  0
    1.6607    3.5111    3.4911 C   0  0  0  0  0  0  0  0  0  0  0  0
    1.2282    4.5673    4.5549 C   0  0  0  0  0  0  0  0  0  0  0  0
    1.5285    4.3044    6.0292 C   0  0  1  0  0  0  0  0  0  0  0  0
    0.4139    4.6622    6.8760 O   0  0  0  0  0  0  0  0  0  0  0  0
    0.9403    3.3549    7.0760 C   0  0  1  0  0  0  0  0  0  0  0  0
   -0.0512    2.1810    6.9282 C   0  0  1  0  0  0  0  0  0  0  0  0
   -1.3325    2.4806    6.1395 C   0  0  0  0  0  0  0  0  0  0  0  0
   -1.1429    2.9402    4.7344 N   0  0  2  0  0  0  0  0  0  0  0  0
   -2.4146    3.5775    4.2602 C   0  0  0  0  0  0  0  0  0  0  0  0
   -2.5207    3.9754    2.7793 C   0  0  0  0  0  0  0  0  0  0  0  0
   -3.3346    5.1554    2.2836 C   0  0  0  0  0  0  0  0  0  0  0  0
   -3.8653    3.7587    2.0802 C   0  0  0  0  0  0  0  0  0  0  0  0
   -0.4969    1.9896    3.7651 C   0  0  2  0  0  0  0  0  0  0  0  0
   -1.1598    0.6094    3.7696 C   0  0  0  0  0  0  0  0  0  0  0  0
   -0.2705   -0.4888    4.3440 C   0  0  2  0  0  0  0  0  0  0  0  0
   -0.7805   -0.9127    5.7763 C   0  0  0  0  0  0  0  0  0  0  0  0
    3.6139   -2.1425    7.1006 H   0  0  0  0  0  0  0  0  0  0  0  0
    4.1744   -0.7403    8.0021 H   0  0  0  0  0  0  0  0  0  0  0  0
    4.1750   -0.7462    6.2105 H   0  0  0  0  0  0  0  0  0  0  0  0
    1.1986   -2.3835    7.5569 H   0  0  0  0  0  0  0  0  0  0  0  0
    3.0865    0.8273    2.5942 H   0  0  0  0  0  0  0  0  0  0  0  0
    1.8263   -1.2096    4.0988 H   0  0  0  0  0  0  0  0  0  0  0  0
    2.0675   -0.5543    1.8003 H   0  0  0  0  0  0  0  0  0  0  0  0
    0.3553   -0.6122    1.8044 H   0  0  0  0  0  0  0  0  0  0  0  0
    2.0755    1.7309    1.5321 H   0  0  0  0  0  0  0  0  0  0  0  0
    0.3830    1.7000    1.3576 H   0  0  0  0  0  0  0  0  0  0  0  0
    2.7501    3.4704    3.4797 H   0  0  0  0  0  0  0  0  0  0  0  0
    1.4143    3.9564    2.5252 H   0  0  0  0  0  0  0  0  0  0  0  0
    1.7875    5.4746    4.3145 H   0  0  0  0  0  0  0  0  0  0  0  0
    0.2072    4.9178    4.4267 H   0  0  0  0  0  0  0  0  0  0  0  0
    2.4958    4.7002    6.3311 H   0  0  0  0  0  0  0  0  0  0  0  0
    1.5284    3.2871    7.9947 H   0  0  0  0  0  0  0  0  0  0  0  0
   -0.4381    2.0707    7.9505 H   0  0  0  0  0  0  0  0  0  0  0  0
   -1.9888    1.6234    6.1912 H   0  0  0  0  0  0  0  0  0  0  0  0
   -1.8661    3.2636    6.6762 H   0  0  0  0  0  0  0  0  0  0  0  0
   -3.2573    2.9284    4.4990 H   0  0  0  0  0  0  0  0  0  0  0  0
   -2.5820    4.4633    4.8570 H   0  0  0  0  0  0  0  0  0  0  0  0
   -1.6075    3.9193    2.1915 H   0  0  0  0  0  0  0  0  0  0  0  0
   -3.8614    5.7725    2.9744 H   0  0  0  0  0  0  0  0  0  0  0  0
   -2.8739    5.7429    1.4920 H   0  0  0  0  0  0  0  0  0  0  0  0
   -3.8519    3.3160    1.0834 H   0  0  0  0  0  0  0  0  0  0  0  0
   -4.7424    3.4735    2.6773 H   0  0  0  0  0  0  0  0  0  0  0  0
   -0.8584    2.3491    2.8803 H   0  0  0  0  0  0  0  0  0  0  0  0
   -2.1411    0.6202    4.2443 H   0  0  0  0  0  0  0  0  0  0  0  0
   -1.4190    0.3749    2.7336 H   0  0  0  0  0  0  0  0  0  0  0  0
   -0.5838   -1.3418    3.7493 H   0  0  0  0  0  0  0  0  0  0  0  0
   -0.7382   -2.0036    5.7782 H   0  0  0  0  0  0  0  0  0  0  0  0
   -1.8289   -0.6563    5.9406 H   0  0  0  0  0  0  0  0  0  0  0  0
   -0.4713    3.7026    4.8014 H   0  0  0  0  0  0  0  0  0  0  0  0
  1  2  1  0
  1 31  1  0
  1 32  1  0
  1 33  1  0
  2  6  1  0
  2  3  1  0
  3  4  2  0
  3 34  1  0
  4 30  1  0
  4  5  1  0
  5 20  1  0
  5  6  2  0
  6  7  1  0
  7  8  2  0
  7  9  1  0
  9 14  1  0
  9 10  1  6
  9 11  1  0
 10 35  1  0
 11 29  1  0
 11 12  1  0
 11 36  1  6
 12 13  1  0
 12 37  1  0
 12 38  1  0
 14 13  1  6
 13 39  1  0
 13 40  1  0
 14 27  1  0
 14 15  1  0
 15 16  1  0
 15 41  1  0
 15 42  1  0
 16 17  1  0
 16 43  1  0
 16 44  1  0
 17 19  1  0
 17 18  1  0
 17 45  1  1
 18 19  1  0
 19 20  1  0
 19 46  1  1
 20 21  1  0
 20 47  1  1
 21 22  1  0
 21 48  1  0
 21 49  1  0
 22 23  1  0
 22 27  1  0
 22 63  1  1
 23 24  1  0
 23 50  1  0
 23 51  1  0
 24 26  1  0
 24 25  1  0
 24 52  1  0
 25 26  1  0
 25 53  1  0
 25 54  1  0
 26 55  1  0
 26 56  1  0
 27 28  1  0
 27 57  1  6
 28 29  1  0
 28 58  1  0
 28 59  1  0
 29 30  1  0
 29 60  1  6
 30 61  1  0
 30 62  1  0
M  CHG  1  22   1
M  END
>  <i_m_ct_stereo_status>  (69) 
1

>  <s_m_source_file>  (69) 
/var/tmp/pbs.5076255.sched01/tmpn440o9cr/0yczfkg0t.sdf

>  <i_m_source_file_index>  (69) 
28

>  <i_lp_mmshare_version>  (69) 
48012

>  <i_f3d_flags>  (69) 
0

>  <s_epik_input>  (69) 
Tz1DMWMybihbQ0gzXSlbY0hdYyhbQ0gyXTMpYzJbQ0BASF0oW0NASF00W0NASF0oTzQpW0NIMl1bQ0gyXTUpW0NIMl1OKFtDSDJdW0NIXTZbQ0gyXVtDSDJdNilbQ0BASF03W0NIMl1bQ0BIXTNbQ0BIXShbQ0BdMShbQ0BdNTc4KVtPSF0pW0NIMl1bQ0gyXTg=

>  <s_epik_cmdline>  (69) 
J2VwaWtfcHl0aG9uJywgJy1waHQnLCAnMi4wJywgJy1waCcsICc3LjAnLCAnLXRuJywgJzgnLCAnLW1hJywgJzIwMCcsICctaW1hZScsICc8aW5maWxlLm1hZT4nLCAnLW9tYWUnLCAnPG91dGZpbGUubWFlPic=

>  <r_epik_Ionization_Penalty>  (69) 
0.0110546

>  <r_epik_Ionization_Penalty_Charging>  (69) 
0.0110534

>  <r_epik_Ionization_Penalty_Neutral>  (69) 
1.14374e-06

>  <r_epik_State_Penalty>  (69) 
0.00848631

>  <r_epik_Charging_Adjusted_Penalty>  (69) 
0.0195397

>  <i_epik_Tot_Q>  (69) 
1

>  <i_epik_Tot_abs_Q>  (69) 
1

>  <s_lp_Force_Field>  (69) 
OPLS3e

>  <r_lp_Energy>  (69) 
192.452

>  <b_lp_Chiralities_Consistent>  (69) 
1

>  <s_lp_Variant>  (69) 
23:0-1

>  <s_i_glide_gridfile>  (69) 
pfpi4k_grid

>  <i_i_glide_lignum>  (69) 
28

>  <i_i_glide_rotatable_bonds>  (69) 
3

>  <r_i_docking_score>  (69) 
-1.63695

>  <r_i_glide_ligand_efficiency>  (69) 
-0.0545651

>  <r_i_glide_ligand_efficiency_sa>  (69) 
-0.169546

>  <r_i_glide_ligand_efficiency_ln>  (69) 
-0.371934

>  <r_i_glide_gscore>  (69) 
-1.63695

>  <r_i_glide_lipo>  (69) 
-0.213536

>  <r_i_glide_hbond>  (69) 
0

>  <r_i_glide_metal>  (69) 
-0

>  <r_i_glide_rewards>  (69) 
-0.616765

>  <r_i_glide_evdw>  (69) 
-15.0421

>  <r_i_glide_ecoul>  (69) 
-1.80112

>  <r_i_glide_erotb>  (69) 
0.234811

>  <r_i_glide_esite>  (69) 
-0.0191917

>  <r_i_glide_emodel>  (69) 
-15.1095

>  <r_i_glide_energy>  (69) 
-16.8432

>  <r_i_glide_einternal>  (69) 
4.3619

>  <r_i_glide_intrahb_reward>  (69) 
-0

>  <i_i_glide_confnum>  (69) 
6

>  <i_i_glide_posenum>  (69) 
11

>  <r_i_glide_eff_state_penalty>  (69) 
0

>  <ligand_id>  (69) 
23

>  <original_smiles>  (69) 
Cn1cc2c3c1C(=O)C1(O)C4CCC15CCC1OC1C3CN(CC1CC1)C5CC4C2

>  <smiles>  (69) 
[H]OC12C(=O)c3c4c(c([H])n3C([H])([H])[H])C([H])([H])C3([H])C([H])([H])C5([H])C1(C([H])([H])C([H])([H])C1([H])OC1([H])C4([H])C([H])([H])[N+]5([H])C([H])([H])C1([H])C([H])([H])C1([H])[H])C([H])([H])C([H])([H])C23[H]

$$$$
23:0:2
     RDKit          3D

 63 70  0  0  1  0  0  0  0  0999 V2000
    3.7593    0.0203    7.0488 C   0  0  0  0  0  0  0  0  0  0  0  0
    2.2961    0.0643    6.9885 N   0  0  0  0  0  0  0  0  0  0  0  0
    1.4303   -1.0210    7.1111 C   0  0  0  0  0  0  0  0  0  0  0  0
    0.2201   -0.5476    6.5830 C   0  0  0  0  0  0  0  0  0  0  0  0
    0.3165    0.8379    6.5358 C   0  0  0  0  0  0  0  0  0  0  0  0
    1.5961    1.1794    6.6297 C   0  0  0  0  0  0  0  0  0  0  0  0
    2.1192    2.1015    5.6201 C   0  0  0  0  0  0  0  0  0  0  0  0
    2.7835    3.0980    5.8960 O   0  0  0  0  0  0  0  0  0  0  0  0
    1.7833    1.7273    4.1348 C   0  0  1  0  0  0  0  0  0  0  0  0
    3.0563    2.0460    3.5655 O   0  0  0  0  0  0  0  0  0  0  0  0
    1.4806    0.2682    3.6169 C   0  0  2  0  0  0  0  0  0  0  0  0
    1.4921    0.5531    2.0680 C   0  0  0  0  0  0  0  0  0  0  0  0
    1.0030    2.0246    1.9271 C   0  0  0  0  0  0  0  0  0  0  0  0
    0.6152    2.4918    3.3848 C   0  0  2  0  0  0  0  0  0  0  0  0
    0.7333    4.0443    3.5681 C   0  0  0  0  0  0  0  0  0  0  0  0
   -0.0964    4.8298    4.6165 C   0  0  0  0  0  0  0  0  0  0  0  0
    0.1617    4.5618    6.0931 C   0  0  1  0  0  0  0  0  0  0  0  0
   -1.0570    4.5186    6.8582 O   0  0  0  0  0  0  0  0  0  0  0  0
   -0.1852    3.3966    7.0283 C   0  0  1  0  0  0  0  0  0  0  0  0
   -0.7488    1.9767    6.7152 C   0  0  1  0  0  0  0  0  0  0  0  0
   -1.9821    1.9286    5.8138 C   0  0  0  0  0  0  0  0  0  0  0  0
   -1.8491    2.5691    4.4787 N   0  0  2  0  0  0  0  0  0  0  0  0
   -3.2102    2.8583    3.9257 C   0  0  0  0  0  0  0  0  0  0  0  0
   -3.3216    3.6837    2.6648 C   0  0  0  0  0  0  0  0  0  0  0  0
   -4.6350    4.3531    2.2996 C   0  0  0  0  0  0  0  0  0  0  0  0
   -4.1847    3.1580    1.5280 C   0  0  0  0  0  0  0  0  0  0  0  0
   -0.8907    1.9425    3.5108 C   0  0  2  0  0  0  0  0  0  0  0  0
   -1.0829    0.4239    3.3567 C   0  0  0  0  0  0  0  0  0  0  0  0
    0.0678   -0.4000    3.9429 C   0  0  2  0  0  0  0  0  0  0  0  0
   -0.3559   -1.0631    5.3203 C   0  0  0  0  0  0  0  0  0  0  0  0
    4.0672   -1.0229    6.9810 H   0  0  0  0  0  0  0  0  0  0  0  0
    4.1313    0.3911    8.0064 H   0  0  0  0  0  0  0  0  0  0  0  0
    4.2583    0.5413    6.2245 H   0  0  0  0  0  0  0  0  0  0  0  0
    1.8480   -2.0069    7.2067 H   0  0  0  0  0  0  0  0  0  0  0  0
    3.1122    1.7517    2.6682 H   0  0  0  0  0  0  0  0  0  0  0  0
    2.2823   -0.4283    3.8607 H   0  0  0  0  0  0  0  0  0  0  0  0
    2.4934    0.4503    1.6414 H   0  0  0  0  0  0  0  0  0  0  0  0
    0.8849   -0.1329    1.4750 H   0  0  0  0  0  0  0  0  0  0  0  0
    1.8034    2.6417    1.5133 H   0  0  0  0  0  0  0  0  0  0  0  0
    0.2115    2.1058    1.1785 H   0  0  0  0  0  0  0  0  0  0  0  0
    1.7797    4.3378    3.6227 H   0  0  0  0  0  0  0  0  0  0  0  0
    0.4380    4.5095    2.6536 H   0  0  0  0  0  0  0  0  0  0  0  0
    0.1663    5.8773    4.4601 H   0  0  0  0  0  0  0  0  0  0  0  0
   -1.1602    4.8540    4.3986 H   0  0  0  0  0  0  0  0  0  0  0  0
    0.9443    5.2062    6.4921 H   0  0  0  0  0  0  0  0  0  0  0  0
    0.3287    3.4393    7.9856 H   0  0  0  0  0  0  0  0  0  0  0  0
   -1.1940    1.7330    7.6829 H   0  0  0  0  0  0  0  0  0  0  0  0
   -2.3388    0.9044    5.7445 H   0  0  0  0  0  0  0  0  0  0  0  0
   -2.7947    2.4322    6.3475 H   0  0  0  0  0  0  0  0  0  0  0  0
   -3.6792    1.9338    3.6840 H   0  0  0  0  0  0  0  0  0  0  0  0
   -3.8448    3.3041    4.6772 H   0  0  0  0  0  0  0  0  0  0  0  0
   -2.4198    4.2301    2.3970 H   0  0  0  0  0  0  0  0  0  0  0  0
   -5.5121    4.1935    2.9194 H   0  0  0  0  0  0  0  0  0  0  0  0
   -4.5631    5.3274    1.8243 H   0  0  0  0  0  0  0  0  0  0  0  0
   -3.8267    3.3248    0.5329 H   0  0  0  0  0  0  0  0  0  0  0  0
   -4.7439    2.2348    1.6442 H   0  0  0  0  0  0  0  0  0  0  0  0
   -1.3148    2.2857    2.5764 H   0  0  0  0  0  0  0  0  0  0  0  0
   -2.0354    0.0873    3.7559 H   0  0  0  0  0  0  0  0  0  0  0  0
   -1.1892    0.2111    2.2885 H   0  0  0  0  0  0  0  0  0  0  0  0
    0.0680   -1.2702    3.2894 H   0  0  0  0  0  0  0  0  0  0  0  0
    0.0113   -2.0892    5.2451 H   0  0  0  0  0  0  0  0  0  0  0  0
   -1.4353   -1.1773    5.4034 H   0  0  0  0  0  0  0  0  0  0  0  0
   -1.4796    3.4860    4.6702 H   0  0  0  0  0  0  0  0  0  0  0  0
  1  2  1  0
  1 31  1  0
  1 32  1  0
  1 33  1  0
  2  6  1  0
  2  3  1  0
  3  4  2  0
  3 34  1  0
  4 30  1  0
  4  5  1  0
  5 20  1  0
  5  6  2  0
  6  7  1  0
  7  8  2  0
  7  9  1  0
  9 14  1  0
  9 10  1  6
  9 11  1  0
 10 35  1  0
 11 29  1  0
 11 12  1  0
 11 36  1  6
 12 13  1  0
 12 37  1  0
 12 38  1  0
 14 13  1  6
 13 39  1  0
 13 40  1  0
 14 27  1  0
 14 15  1  0
 15 16  1  0
 15 41  1  0
 15 42  1  0
 16 17  1  0
 16 43  1  0
 16 44  1  0
 17 19  1  0
 17 18  1  0
 17 45  1  1
 18 19  1  0
 19 20  1  0
 19 46  1  1
 20 21  1  0
 20 47  1  1
 21 22  1  0
 21 48  1  0
 21 49  1  0
 22 23  1  0
 22 27  1  0
 22 63  1  1
 23 24  1  0
 23 50  1  0
 23 51  1  0
 24 26  1  0
 24 25  1  0
 24 52  1  0
 25 26  1  0
 25 53  1  0
 25 54  1  0
 26 55  1  0
 26 56  1  0
 27 28  1  0
 27 57  1  6
 28 29  1  0
 28 58  1  0
 28 59  1  0
 29 30  1  0
 29 60  1  6
 30 61  1  0
 30 62  1  0
M  CHG  1  22   1
M  END
>  <i_m_ct_stereo_status>  (70) 
1

>  <s_m_source_file>  (70) 
/var/tmp/pbs.5076255.sched01/tmpn440o9cr/0yczfkg0t.sdf

>  <i_m_source_file_index>  (70) 
28

>  <i_lp_mmshare_version>  (70) 
48012

>  <i_f3d_flags>  (70) 
0

>  <s_epik_input>  (70) 
Tz1DMWMybihbQ0gzXSlbY0hdYyhbQ0gyXTMpYzJbQ0BASF0oW0NASF00W0NASF0oTzQpW0NIMl1bQ0gyXTUpW0NIMl1OKFtDSDJdW0NIXTZbQ0gyXVtDSDJdNilbQ0BASF03W0NIMl1bQ0BIXTNbQ0BIXShbQ0BdMShbQ0BdNTc4KVtPSF0pW0NIMl1bQ0gyXTg=

>  <s_epik_cmdline>  (70) 
J2VwaWtfcHl0aG9uJywgJy1waHQnLCAnMi4wJywgJy1waCcsICc3LjAnLCAnLXRuJywgJzgnLCAnLW1hJywgJzIwMCcsICctaW1hZScsICc8aW5maWxlLm1hZT4nLCAnLW9tYWUnLCAnPG91dGZpbGUubWFlPic=

>  <r_epik_Ionization_Penalty>  (70) 
0.0110546

>  <r_epik_Ionization_Penalty_Charging>  (70) 
0.0110534

>  <r_epik_Ionization_Penalty_Neutral>  (70) 
1.14374e-06

>  <r_epik_State_Penalty>  (70) 
0.00848631

>  <r_epik_Charging_Adjusted_Penalty>  (70) 
0.0195397

>  <i_epik_Tot_Q>  (70) 
1

>  <i_epik_Tot_abs_Q>  (70) 
1

>  <s_lp_Force_Field>  (70) 
OPLS3e

>  <r_lp_Energy>  (70) 
192.452

>  <b_lp_Chiralities_Consistent>  (70) 
1

>  <s_lp_Variant>  (70) 
23:0-1

>  <s_i_glide_gridfile>  (70) 
pfpi4k_grid

>  <i_i_glide_lignum>  (70) 
28

>  <i_i_glide_rotatable_bonds>  (70) 
3

>  <r_i_docking_score>  (70) 
-1.24533

>  <r_i_glide_ligand_efficiency>  (70) 
-0.0415108

>  <r_i_glide_ligand_efficiency_sa>  (70) 
-0.128984

>  <r_i_glide_ligand_efficiency_ln>  (70) 
-0.282952

>  <r_i_glide_gscore>  (70) 
-1.24533

>  <r_i_glide_lipo>  (70) 
-0.0674103

>  <r_i_glide_hbond>  (70) 
0

>  <r_i_glide_metal>  (70) 
-0

>  <r_i_glide_rewards>  (70) 
-0.616765

>  <r_i_glide_evdw>  (70) 
-7.49601

>  <r_i_glide_ecoul>  (70) 
-2.6766

>  <r_i_glide_erotb>  (70) 
0.234811

>  <r_i_glide_esite>  (70) 
-0.0196715

>  <r_i_glide_emodel>  (70) 
-10.0724

>  <r_i_glide_energy>  (70) 
-10.1726

>  <r_i_glide_einternal>  (70) 
1.47995

>  <r_i_glide_intrahb_reward>  (70) 
-0

>  <i_i_glide_confnum>  (70) 
1

>  <i_i_glide_posenum>  (70) 
1

>  <r_i_glide_eff_state_penalty>  (70) 
0

>  <ligand_id>  (70) 
23

>  <original_smiles>  (70) 
Cn1cc2c3c1C(=O)C1(O)C4CCC15CCC1OC1C3CN(CC1CC1)C5CC4C2

>  <smiles>  (70) 
[H]OC12C(=O)c3c4c(c([H])n3C([H])([H])[H])C([H])([H])C3([H])C([H])([H])C5([H])C1(C([H])([H])C([H])([H])C1([H])OC1([H])C4([H])C([H])([H])[N+]5([H])C([H])([H])C1([H])C([H])([H])C1([H])[H])C([H])([H])C([H])([H])C23[H]

$$$$
23:1:0
     RDKit          3D

 62 69  0  0  1  0  0  0  0  0999 V2000
    0.3059   -2.1847    4.5774 C   0  0  0  0  0  0  0  0  0  0  0  0
    0.5081   -0.9365    3.8792 N   0  0  0  0  0  0  0  0  0  0  0  0
    1.3937   -0.6876    2.8267 C   0  0  0  0  0  0  0  0  0  0  0  0
    1.5384    0.7049    2.8576 C   0  0  0  0  0  0  0  0  0  0  0  0
    0.4437    1.2213    3.5624 C   0  0  0  0  0  0  0  0  0  0  0  0
   -0.0129    0.2387    4.3451 C   0  0  0  0  0  0  0  0  0  0  0  0
   -0.2299    0.5064    5.7676 C   0  0  0  0  0  0  0  0  0  0  0  0
   -1.2728    0.2412    6.3625 O   0  0  0  0  0  0  0  0  0  0  0  0
    0.9961    1.1596    6.4733 C   0  0  1  0  0  0  0  0  0  0  0  0
    0.9250    0.4394    7.7107 O   0  0  0  0  0  0  0  0  0  0  0  0
    2.4891    0.9921    5.9786 C   0  0  2  0  0  0  0  0  0  0  0  0
    3.2160    1.6374    7.2251 C   0  0  0  0  0  0  0  0  0  0  0  0
    2.2285    2.7243    7.7533 C   0  0  0  0  0  0  0  0  0  0  0  0
    1.0237    2.7280    6.7337 C   0  0  2  0  0  0  0  0  0  0  0  0
   -0.2855    3.2564    7.4127 C   0  0  0  0  0  0  0  0  0  0  0  0
   -1.4525    3.8599    6.5743 C   0  0  0  0  0  0  0  0  0  0  0  0
   -2.1538    2.9978    5.5235 C   0  0  1  0  0  0  0  0  0  0  0  0
   -2.4484    3.7296    4.3175 O   0  0  0  0  0  0  0  0  0  0  0  0
   -1.7596    2.4978    4.1378 C   0  0  1  0  0  0  0  0  0  0  0  0
   -0.3890    2.5387    3.4375 C   0  0  1  0  0  0  0  0  0  0  0  0
    0.3590    3.8649    3.4325 C   0  0  0  0  0  0  0  0  0  0  0  0
    0.6849    4.4728    4.7168 N   0  0  0  0  0  0  0  0  0  0  0  0
    1.1466    5.8471    4.4436 C   0  0  0  0  0  0  0  0  0  0  0  0
    1.0476    6.8166    5.6182 C   0  0  0  0  0  0  0  0  0  0  0  0
    0.3266    8.1418    5.4583 C   0  0  0  0  0  0  0  0  0  0  0  0
    1.8276    8.1127    5.5407 C   0  0  0  0  0  0  0  0  0  0  0  0
    1.5880    3.7161    5.5986 C   0  0  2  0  0  0  0  0  0  0  0  0
    2.9070    3.3030    4.9145 C   0  0  0  0  0  0  0  0  0  0  0  0
    3.0115    1.7973    4.6951 C   0  0  2  0  0  0  0  0  0  0  0  0
    2.7824    1.4362    3.1849 C   0  0  0  0  0  0  0  0  0  0  0  0
    1.1049   -2.8671    4.2975 H   0  0  0  0  0  0  0  0  0  0  0  0
   -0.6363   -2.6441    4.2766 H   0  0  0  0  0  0  0  0  0  0  0  0
    0.3458   -2.1003    5.6750 H   0  0  0  0  0  0  0  0  0  0  0  0
    2.0529   -1.4553    2.5104 H   0  0  0  0  0  0  0  0  0  0  0  0
    1.6214    0.7706    8.2595 H   0  0  0  0  0  0  0  0  0  0  0  0
    2.7797   -0.0546    5.9063 H   0  0  0  0  0  0  0  0  0  0  0  0
    3.4180    0.9032    8.0120 H   0  0  0  0  0  0  0  0  0  0  0  0
    4.2009    2.0563    7.0057 H   0  0  0  0  0  0  0  0  0  0  0  0
    1.9014    2.4719    8.7665 H   0  0  0  0  0  0  0  0  0  0  0  0
    2.7311    3.6869    7.8866 H   0  0  0  0  0  0  0  0  0  0  0  0
   -0.6918    2.4734    8.0525 H   0  0  0  0  0  0  0  0  0  0  0  0
    0.0084    4.0465    8.1047 H   0  0  0  0  0  0  0  0  0  0  0  0
   -2.2300    4.1205    7.2921 H   0  0  0  0  0  0  0  0  0  0  0  0
   -1.2052    4.8301    6.1510 H   0  0  0  0  0  0  0  0  0  0  0  0
   -2.9849    2.4447    5.9598 H   0  0  0  0  0  0  0  0  0  0  0  0
   -2.4190    1.7409    3.7123 H   0  0  0  0  0  0  0  0  0  0  0  0
   -0.6579    2.4355    2.3921 H   0  0  0  0  0  0  0  0  0  0  0  0
    1.2434    3.8010    2.8032 H   0  0  0  0  0  0  0  0  0  0  0  0
   -0.3025    4.5615    2.9134 H   0  0  0  0  0  0  0  0  0  0  0  0
    2.1687    5.8422    4.0654 H   0  0  0  0  0  0  0  0  0  0  0  0
    0.5470    6.2838    3.6462 H   0  0  0  0  0  0  0  0  0  0  0  0
    0.9904    6.3686    6.6098 H   0  0  0  0  0  0  0  0  0  0  0  0
   -0.1148    8.3733    4.4888 H   0  0  0  0  0  0  0  0  0  0  0  0
   -0.2064    8.5364    6.3220 H   0  0  0  0  0  0  0  0  0  0  0  0
    2.2837    8.4885    6.4543 H   0  0  0  0  0  0  0  0  0  0  0  0
    2.3822    8.3135    4.6247 H   0  0  0  0  0  0  0  0  0  0  0  0
    1.9317    4.5431    6.2088 H   0  0  0  0  0  0  0  0  0  0  0  0
    3.0585    3.8317    3.9816 H   0  0  0  0  0  0  0  0  0  0  0  0
    3.7459    3.6628    5.5232 H   0  0  0  0  0  0  0  0  0  0  0  0
    4.0819    1.6549    4.7504 H   0  0  0  0  0  0  0  0  0  0  0  0
    3.5632    0.7161    2.9277 H   0  0  0  0  0  0  0  0  0  0  0  0
    2.9354    2.2817    2.5039 H   0  0  0  0  0  0  0  0  0  0  0  0
  1  2  1  0
  1 31  1  0
  1 32  1  0
  1 33  1  0
  2  6  1  0
  2  3  1  0
  3  4  2  0
  3 34  1  0
  4 30  1  0
  4  5  1  0
  5 20  1  0
  5  6  2  0
  6  7  1  0
  7  8  2  0
  7  9  1  0
  9 14  1  0
  9 10  1  1
  9 11  1  0
 10 35  1  0
 11 29  1  0
 11 12  1  0
 11 36  1  6
 12 13  1  0
 12 37  1  0
 12 38  1  0
 14 13  1  1
 13 39  1  0
 13 40  1  0
 14 27  1  0
 14 15  1  0
 15 16  1  0
 15 41  1  0
 15 42  1  0
 16 17  1  0
 16 43  1  0
 16 44  1  0
 17 19  1  0
 17 18  1  0
 17 45  1  1
 18 19  1  0
 19 20  1  0
 19 46  1  6
 20 21  1  0
 20 47  1  6
 21 22  1  0
 21 48  1  0
 21 49  1  0
 22 23  1  0
 22 27  1  0
 23 24  1  0
 23 50  1  0
 23 51  1  0
 24 26  1  0
 24 25  1  0
 24 52  1  0
 25 26  1  0
 25 53  1  0
 25 54  1  0
 26 55  1  0
 26 56  1  0
 27 28  1  0
 27 57  1  1
 28 29  1  0
 28 58  1  0
 28 59  1  0
 29 30  1  0
 29 60  1  1
 30 61  1  0
 30 62  1  0
M  END
>  <i_m_ct_stereo_status>  (71) 
1

>  <s_m_source_file>  (71) 
/var/tmp/pbs.5076255.sched01/tmpn440o9cr/0yczfkg0t.sdf

>  <i_m_source_file_index>  (71) 
29

>  <i_lp_mmshare_version>  (71) 
48012

>  <i_f3d_flags>  (71) 
0

>  <s_epik_input>  (71) 
Tz1DMWMybihbQ0gzXSlbY0hdYyhbQ0gyXTMpYzJbQ0BASF0oW0NASF00W0NASF0oTzQpW0NIMl1bQ0gyXTUpW0NIMl1OKFtDSDJdW0NIXTZbQ0gyXVtDSDJdNilbQ0BASF03W0NIMl1bQ0BIXTNbQ0BIXShbQ0BdMShbQ0BdNTc4KVtPSF0pW0NIMl1bQ0gyXTg=

>  <s_epik_cmdline>  (71) 
J2VwaWtfcHl0aG9uJywgJy1waHQnLCAnMi4wJywgJy1waCcsICc3LjAnLCAnLXRuJywgJzgnLCAnLW1hJywgJzIwMCcsICctaW1hZScsICc8aW5maWxlLm1hZT4nLCAnLW9tYWUnLCAnPG91dGZpbGUubWFlPic=

>  <r_epik_Ionization_Penalty>  (71) 
2.36455

>  <r_epik_Ionization_Penalty_Charging>  (71) 
0

>  <r_epik_Ionization_Penalty_Neutral>  (71) 
2.36455

>  <r_epik_State_Penalty>  (71) 
2.51986

>  <r_epik_Charging_Adjusted_Penalty>  (71) 
2.51986

>  <i_epik_Tot_Q>  (71) 
0

>  <i_epik_Tot_abs_Q>  (71) 
0

>  <s_lp_Force_Field>  (71) 
OPLS3e

>  <r_lp_Energy>  (71) 
200.622

>  <b_lp_Chiralities_Consistent>  (71) 
1

>  <s_lp_Variant>  (71) 
23:0-2

>  <s_i_glide_gridfile>  (71) 
pfpi4k_grid

>  <i_i_glide_lignum>  (71) 
29

>  <i_i_glide_rotatable_bonds>  (71) 
3

>  <r_i_docking_score>  (71) 
-2.43392

>  <r_i_glide_ligand_efficiency>  (71) 
-0.0811307

>  <r_i_glide_ligand_efficiency_sa>  (71) 
-0.252092

>  <r_i_glide_ligand_efficiency_ln>  (71) 
-0.553014

>  <r_i_glide_gscore>  (71) 
-2.43392

>  <r_i_glide_lipo>  (71) 
-0.0772597

>  <r_i_glide_hbond>  (71) 
-0.116818

>  <r_i_glide_metal>  (71) 
-0

>  <r_i_glide_rewards>  (71) 
-0.623637

>  <r_i_glide_evdw>  (71) 
-20.4834

>  <r_i_glide_ecoul>  (71) 
-5.33737

>  <r_i_glide_erotb>  (71) 
0.235857

>  <r_i_glide_esite>  (71) 
-0.0272889

>  <r_i_glide_emodel>  (71) 
-29.3848

>  <r_i_glide_energy>  (71) 
-25.8208

>  <r_i_glide_einternal>  (71) 
0.463884

>  <r_i_glide_intrahb_reward>  (71) 
-0

>  <i_i_glide_confnum>  (71) 
4

>  <i_i_glide_posenum>  (71) 
37

>  <r_i_glide_eff_state_penalty>  (71) 
0

>  <ligand_id>  (71) 
23

>  <original_smiles>  (71) 
Cn1cc2c3c1C(=O)C1(O)C4CCC15CCC1OC1C3CN(CC1CC1)C5CC4C2

>  <smiles>  (71) 
[H]OC12C(=O)c3c4c(c([H])n3C([H])([H])[H])C([H])([H])C3([H])C([H])([H])C5([H])N(C([H])([H])C6([H])C([H])([H])C6([H])[H])C([H])([H])C4([H])C4([H])OC4([H])C([H])([H])C([H])([H])C15C([H])([H])C([H])([H])C23[H]

$$$$
23:1:1
     RDKit          3D

 62 69  0  0  1  0  0  0  0  0999 V2000
    5.5400    0.9333    6.7980 C   0  0  0  0  0  0  0  0  0  0  0  0
    4.3650    0.4167    6.1418 N   0  0  0  0  0  0  0  0  0  0  0  0
    4.3001   -0.4532    5.0428 C   0  0  0  0  0  0  0  0  0  0  0  0
    3.0301   -0.2435    4.5198 C   0  0  0  0  0  0  0  0  0  0  0  0
    2.2741    0.3247    5.5311 C   0  0  0  0  0  0  0  0  0  0  0  0
    3.1138    0.9157    6.3625 C   0  0  0  0  0  0  0  0  0  0  0  0
    2.8834    2.2974    6.7768 C   0  0  0  0  0  0  0  0  0  0  0  0
    2.8249    2.6564    7.9425 O   0  0  0  0  0  0  0  0  0  0  0  0
    2.6293    3.2576    5.5750 C   0  0  1  0  0  0  0  0  0  0  0  0
    3.3653    4.3776    6.0572 O   0  0  0  0  0  0  0  0  0  0  0  0
    3.1819    2.9841    4.1266 C   0  0  2  0  0  0  0  0  0  0  0  0
    2.8360    4.3797    3.4878 C   0  0  0  0  0  0  0  0  0  0  0  0
    1.5403    4.8486    4.2223 C   0  0  0  0  0  0  0  0  0  0  0  0
    1.1464    3.6580    5.1791 C   0  0  2  0  0  0  0  0  0  0  0  0
    0.2981    4.1626    6.3916 C   0  0  0  0  0  0  0  0  0  0  0  0
   -0.6569    3.2117    7.1786 C   0  0  0  0  0  0  0  0  0  0  0  0
   -0.0954    1.9753    7.8812 C   0  0  1  0  0  0  0  0  0  0  0  0
   -0.9300    0.8097    7.6980 O   0  0  0  0  0  0  0  0  0  0  0  0
    0.4431    0.6371    7.3751 C   0  0  1  0  0  0  0  0  0  0  0  0
    0.7839    0.1814    5.9385 C   0  0  1  0  0  0  0  0  0  0  0  0
   -0.2965    0.4167    4.8759 C   0  0  0  0  0  0  0  0  0  0  0  0
   -0.7201    1.7978    4.6491 N   0  0  0  0  0  0  0  0  0  0  0  0
   -1.9031    1.7452    3.7752 C   0  0  0  0  0  0  0  0  0  0  0  0
   -2.7715    2.9950    3.7917 C   0  0  0  0  0  0  0  0  0  0  0  0
   -3.7726    3.2044    2.6652 C   0  0  0  0  0  0  0  0  0  0  0  0
   -2.5591    4.0812    2.7682 C   0  0  0  0  0  0  0  0  0  0  0  0
    0.3077    2.7324    4.1728 C   0  0  2  0  0  0  0  0  0  0  0  0
    1.0419    2.2070    2.9250 C   0  0  0  0  0  0  0  0  0  0  0  0
    2.5033    1.8828    3.1771 C   0  0  2  0  0  0  0  0  0  0  0  0
    2.7314    0.3278    3.1874 C   0  0  0  0  0  0  0  0  0  0  0  0
    6.4191    0.7349    6.1800 H   0  0  0  0  0  0  0  0  0  0  0  0
    5.6700    0.4500    7.7681 H   0  0  0  0  0  0  0  0  0  0  0  0
    5.4953    2.0158    6.9361 H   0  0  0  0  0  0  0  0  0  0  0  0
    5.2197   -0.7152    4.5514 H   0  0  0  0  0  0  0  0  0  0  0  0
    3.2456    5.0429    5.3951 H   0  0  0  0  0  0  0  0  0  0  0  0
    4.2526    2.8334    4.1373 H   0  0  0  0  0  0  0  0  0  0  0  0
    3.6319    5.1123    3.6396 H   0  0  0  0  0  0  0  0  0  0  0  0
    2.7056    4.3703    2.4033 H   0  0  0  0  0  0  0  0  0  0  0  0
    1.7354    5.7719    4.7781 H   0  0  0  0  0  0  0  0  0  0  0  0
    0.7732    5.1535    3.5033 H   0  0  0  0  0  0  0  0  0  0  0  0
    0.9612    4.6449    7.1060 H   0  0  0  0  0  0  0  0  0  0  0  0
   -0.3364    4.9683    6.0210 H   0  0  0  0  0  0  0  0  0  0  0  0
   -1.0950    3.8167    7.9722 H   0  0  0  0  0  0  0  0  0  0  0  0
   -1.5406    2.9363    6.6084 H   0  0  0  0  0  0  0  0  0  0  0  0
    0.2162    2.1898    8.9015 H   0  0  0  0  0  0  0  0  0  0  0  0
    0.9694    0.0506    8.1189 H   0  0  0  0  0  0  0  0  0  0  0  0
    0.7886   -0.9080    6.0268 H   0  0  0  0  0  0  0  0  0  0  0  0
   -0.0065   -0.0636    3.9392 H   0  0  0  0  0  0  0  0  0  0  0  0
   -1.1733   -0.1357    5.2292 H   0  0  0  0  0  0  0  0  0  0  0  0
   -1.6262    1.4903    2.7493 H   0  0  0  0  0  0  0  0  0  0  0  0
   -2.5615    0.9565    4.1245 H   0  0  0  0  0  0  0  0  0  0  0  0
   -3.1073    3.2942    4.7809 H   0  0  0  0  0  0  0  0  0  0  0  0
   -3.7827    2.4995    1.8331 H   0  0  0  0  0  0  0  0  0  0  0  0
   -4.7243    3.6806    2.8872 H   0  0  0  0  0  0  0  0  0  0  0  0
   -2.7027    5.1161    3.0686 H   0  0  0  0  0  0  0  0  0  0  0  0
   -1.7431    3.9081    2.0847 H   0  0  0  0  0  0  0  0  0  0  0  0
   -0.3474    3.4808    3.7534 H   0  0  0  0  0  0  0  0  0  0  0  0
    0.5325    1.3805    2.4501 H   0  0  0  0  0  0  0  0  0  0  0  0
    1.0034    2.9453    2.1250 H   0  0  0  0  0  0  0  0  0  0  0  0
    2.9562    2.1004    2.2239 H   0  0  0  0  0  0  0  0  0  0  0  0
    3.6386    0.1332    2.5915 H   0  0  0  0  0  0  0  0  0  0  0  0
    1.9177   -0.2218    2.6880 H   0  0  0  0  0  0  0  0  0  0  0  0
  1  2  1  0
  1 31  1  0
  1 32  1  0
  1 33  1  0
  2  6  1  0
  2  3  1  0
  3  4  2  0
  3 34  1  0
  4 30  1  0
  4  5  1  0
  5 20  1  0
  5  6  2  0
  6  7  1  0
  7  8  2  0
  7  9  1  0
  9 14  1  0
  9 10  1  1
  9 11  1  0
 10 35  1  0
 11 29  1  0
 11 12  1  0
 11 36  1  1
 12 13  1  0
 12 37  1  0
 12 38  1  0
 14 13  1  6
 13 39  1  0
 13 40  1  0
 14 27  1  0
 14 15  1  0
 15 16  1  0
 15 41  1  0
 15 42  1  0
 16 17  1  0
 16 43  1  0
 16 44  1  0
 17 19  1  0
 17 18  1  0
 17 45  1  1
 18 19  1  0
 19 20  1  0
 19 46  1  1
 20 21  1  0
 20 47  1  1
 21 22  1  0
 21 48  1  0
 21 49  1  0
 22 23  1  0
 22 27  1  0
 23 24  1  0
 23 50  1  0
 23 51  1  0
 24 26  1  0
 24 25  1  0
 24 52  1  0
 25 26  1  0
 25 53  1  0
 25 54  1  0
 26 55  1  0
 26 56  1  0
 27 28  1  0
 27 57  1  6
 28 29  1  0
 28 58  1  0
 28 59  1  0
 29 30  1  0
 29 60  1  6
 30 61  1  0
 30 62  1  0
M  END
>  <i_m_ct_stereo_status>  (72) 
1

>  <s_m_source_file>  (72) 
/var/tmp/pbs.5076255.sched01/tmpn440o9cr/0yczfkg0t.sdf

>  <i_m_source_file_index>  (72) 
29

>  <i_lp_mmshare_version>  (72) 
48012

>  <i_f3d_flags>  (72) 
0

>  <s_epik_input>  (72) 
Tz1DMWMybihbQ0gzXSlbY0hdYyhbQ0gyXTMpYzJbQ0BASF0oW0NASF00W0NASF0oTzQpW0NIMl1bQ0gyXTUpW0NIMl1OKFtDSDJdW0NIXTZbQ0gyXVtDSDJdNilbQ0BASF03W0NIMl1bQ0BIXTNbQ0BIXShbQ0BdMShbQ0BdNTc4KVtPSF0pW0NIMl1bQ0gyXTg=

>  <s_epik_cmdline>  (72) 
J2VwaWtfcHl0aG9uJywgJy1waHQnLCAnMi4wJywgJy1waCcsICc3LjAnLCAnLXRuJywgJzgnLCAnLW1hJywgJzIwMCcsICctaW1hZScsICc8aW5maWxlLm1hZT4nLCAnLW9tYWUnLCAnPG91dGZpbGUubWFlPic=

>  <r_epik_Ionization_Penalty>  (72) 
2.36455

>  <r_epik_Ionization_Penalty_Charging>  (72) 
0

>  <r_epik_Ionization_Penalty_Neutral>  (72) 
2.36455

>  <r_epik_State_Penalty>  (72) 
2.51986

>  <r_epik_Charging_Adjusted_Penalty>  (72) 
2.51986

>  <i_epik_Tot_Q>  (72) 
0

>  <i_epik_Tot_abs_Q>  (72) 
0

>  <s_lp_Force_Field>  (72) 
OPLS3e

>  <r_lp_Energy>  (72) 
200.622

>  <b_lp_Chiralities_Consistent>  (72) 
1

>  <s_lp_Variant>  (72) 
23:0-2

>  <s_i_glide_gridfile>  (72) 
pfpi4k_grid

>  <i_i_glide_lignum>  (72) 
29

>  <i_i_glide_rotatable_bonds>  (72) 
3

>  <r_i_docking_score>  (72) 
-1.89739

>  <r_i_glide_ligand_efficiency>  (72) 
-0.0632463

>  <r_i_glide_ligand_efficiency_sa>  (72) 
-0.196521

>  <r_i_glide_ligand_efficiency_ln>  (72) 
-0.431108

>  <r_i_glide_gscore>  (72) 
-1.89739

>  <r_i_glide_lipo>  (72) 
-0.0573938

>  <r_i_glide_hbond>  (72) 
-0.0658708

>  <r_i_glide_metal>  (72) 
-0

>  <r_i_glide_rewards>  (72) 
-0.627429

>  <r_i_glide_evdw>  (72) 
-18.5466

>  <r_i_glide_ecoul>  (72) 
-3.03482

>  <r_i_glide_erotb>  (72) 
0.235857

>  <r_i_glide_esite>  (72) 
0

>  <r_i_glide_emodel>  (72) 
-23.9175

>  <r_i_glide_energy>  (72) 
-21.5814

>  <r_i_glide_einternal>  (72) 
0.229413

>  <r_i_glide_intrahb_reward>  (72) 
-0

>  <i_i_glide_confnum>  (72) 
1

>  <i_i_glide_posenum>  (72) 
35

>  <r_i_glide_eff_state_penalty>  (72) 
0

>  <ligand_id>  (72) 
23

>  <original_smiles>  (72) 
Cn1cc2c3c1C(=O)C1(O)C4CCC15CCC1OC1C3CN(CC1CC1)C5CC4C2

>  <smiles>  (72) 
[H]OC12C(=O)c3c4c(c([H])n3C([H])([H])[H])C([H])([H])C3([H])C([H])([H])C5([H])N(C([H])([H])C6([H])C([H])([H])C6([H])[H])C([H])([H])C4([H])C4([H])OC4([H])C([H])([H])C([H])([H])C15C([H])([H])C([H])([H])C23[H]

$$$$
23:1:2
     RDKit          3D

 62 69  0  0  1  0  0  0  0  0999 V2000
    3.6819    0.6453    7.4494 C   0  0  0  0  0  0  0  0  0  0  0  0
    2.2344    0.5913    7.3385 N   0  0  0  0  0  0  0  0  0  0  0  0
    1.3981   -0.5429    7.4857 C   0  0  0  0  0  0  0  0  0  0  0  0
    0.2018   -0.1472    6.8610 C   0  0  0  0  0  0  0  0  0  0  0  0
    0.2418    1.2110    6.7420 C   0  0  0  0  0  0  0  0  0  0  0  0
    1.5083    1.6127    6.8597 C   0  0  0  0  0  0  0  0  0  0  0  0
    2.0467    2.5724    5.8780 C   0  0  0  0  0  0  0  0  0  0  0  0
    2.6006    3.6128    6.1638 O   0  0  0  0  0  0  0  0  0  0  0  0
    1.7573    2.1463    4.4028 C   0  0  1  0  0  0  0  0  0  0  0  0
    3.0163    2.5447    3.8449 O   0  0  0  0  0  0  0  0  0  0  0  0
    1.5470    0.6546    3.9527 C   0  0  2  0  0  0  0  0  0  0  0  0
    1.5919    0.8743    2.4018 C   0  0  0  0  0  0  0  0  0  0  0  0
    0.9941    2.2904    2.1899 C   0  0  0  0  0  0  0  0  0  0  0  0
    0.5503    2.8134    3.6163 C   0  0  2  0  0  0  0  0  0  0  0  0
    0.5540    4.3771    3.7534 C   0  0  0  0  0  0  0  0  0  0  0  0
   -0.3200    5.1295    4.7915 C   0  0  0  0  0  0  0  0  0  0  0  0
   -0.0718    4.9100    6.2728 C   0  0  1  0  0  0  0  0  0  0  0  0
   -1.2848    4.7799    7.0444 O   0  0  0  0  0  0  0  0  0  0  0  0
   -0.3634    3.7107    7.2015 C   0  0  1  0  0  0  0  0  0  0  0  0
   -0.8605    2.2964    6.8553 C   0  0  1  0  0  0  0  0  0  0  0  0
   -2.0713    2.1920    5.9186 C   0  0  0  0  0  0  0  0  0  0  0  0
   -1.9411    2.7743    4.5833 N   0  0  0  0  0  0  0  0  0  0  0  0
   -3.2837    2.7972    3.9846 C   0  0  0  0  0  0  0  0  0  0  0  0
   -3.5075    3.6661    2.7474 C   0  0  0  0  0  0  0  0  0  0  0  0
   -4.8576    4.2932    2.4674 C   0  0  0  0  0  0  0  0  0  0  0  0
   -4.3892    3.1301    1.6282 C   0  0  0  0  0  0  0  0  0  0  0  0
   -0.9202    2.1888    3.7025 C   0  0  2  0  0  0  0  0  0  0  0  0
   -1.0133    0.6562    3.5793 C   0  0  0  0  0  0  0  0  0  0  0  0
    0.1507   -0.0799    4.2539 C   0  0  2  0  0  0  0  0  0  0  0  0
   -0.3095   -0.7649    5.6032 C   0  0  0  0  0  0  0  0  0  0  0  0
    4.0696   -0.3637    7.4365 H   0  0  0  0  0  0  0  0  0  0  0  0
    3.9669    1.1208    8.3869 H   0  0  0  0  0  0  0  0  0  0  0  0
    4.1451    1.1702    6.6113 H   0  0  0  0  0  0  0  0  0  0  0  0
    1.8720   -1.5106    7.6035 H   0  0  0  0  0  0  0  0  0  0  0  0
    2.9334    2.4053    2.9160 H   0  0  0  0  0  0  0  0  0  0  0  0
    2.3780    0.0185    4.2470 H   0  0  0  0  0  0  0  0  0  0  0  0
    2.6037    0.8375    1.9929 H   0  0  0  0  0  0  0  0  0  0  0  0
    1.0467    0.1358    1.8099 H   0  0  0  0  0  0  0  0  0  0  0  0
    1.7368    2.9458    1.7253 H   0  0  0  0  0  0  0  0  0  0  0  0
    0.1961    2.1885    1.4476 H   0  0  0  0  0  0  0  0  0  0  0  0
    1.5768    4.7387    3.7999 H   0  0  0  0  0  0  0  0  0  0  0  0
    0.1507    4.8090    2.8553 H   0  0  0  0  0  0  0  0  0  0  0  0
   -0.1310    6.1909    4.6070 H   0  0  0  0  0  0  0  0  0  0  0  0
   -1.3817    5.0649    4.5632 H   0  0  0  0  0  0  0  0  0  0  0  0
    0.6767    5.5879    6.6612 H   0  0  0  0  0  0  0  0  0  0  0  0
    0.1188    3.7558    8.1649 H   0  0  0  0  0  0  0  0  0  0  0  0
   -1.2905    1.9820    7.8038 H   0  0  0  0  0  0  0  0  0  0  0  0
   -2.4049    1.1602    5.8653 H   0  0  0  0  0  0  0  0  0  0  0  0
   -2.8882    2.7278    6.4174 H   0  0  0  0  0  0  0  0  0  0  0  0
   -3.4706    1.7683    3.6878 H   0  0  0  0  0  0  0  0  0  0  0  0
   -4.0337    3.0693    4.7277 H   0  0  0  0  0  0  0  0  0  0  0  0
   -2.6546    4.2850    2.4606 H   0  0  0  0  0  0  0  0  0  0  0  0
   -5.7030    4.0981    3.1307 H   0  0  0  0  0  0  0  0  0  0  0  0
   -4.8698    5.2713    1.9941 H   0  0  0  0  0  0  0  0  0  0  0  0
   -4.1971    3.3810    0.5865 H   0  0  0  0  0  0  0  0  0  0  0  0
   -4.8976    2.1747    1.7514 H   0  0  0  0  0  0  0  0  0  0  0  0
   -1.3357    2.5000    2.7554 H   0  0  0  0  0  0  0  0  0  0  0  0
   -1.9495    0.2710    3.9577 H   0  0  0  0  0  0  0  0  0  0  0  0
   -1.0597    0.3873    2.5121 H   0  0  0  0  0  0  0  0  0  0  0  0
    0.2268   -0.9640    3.6426 H   0  0  0  0  0  0  0  0  0  0  0  0
    0.1273   -1.7614    5.5909 H   0  0  0  0  0  0  0  0  0  0  0  0
   -1.3949   -0.8997    5.6544 H   0  0  0  0  0  0  0  0  0  0  0  0
  1  2  1  0
  1 31  1  0
  1 32  1  0
  1 33  1  0
  2  6  1  0
  2  3  1  0
  3  4  2  0
  3 34  1  0
  4 30  1  0
  4  5  1  0
  5 20  1  0
  5  6  2  0
  6  7  1  0
  7  8  2  0
  7  9  1  0
  9 14  1  0
  9 10  1  6
  9 11  1  0
 10 35  1  0
 11 29  1  0
 11 12  1  0
 11 36  1  1
 12 13  1  0
 12 37  1  0
 12 38  1  0
 14 13  1  6
 13 39  1  0
 13 40  1  0
 14 27  1  0
 14 15  1  0
 15 16  1  0
 15 41  1  0
 15 42  1  0
 16 17  1  0
 16 43  1  0
 16 44  1  0
 17 19  1  0
 17 18  1  0
 17 45  1  1
 18 19  1  0
 19 20  1  0
 19 46  1  1
 20 21  1  0
 20 47  1  1
 21 22  1  0
 21 48  1  0
 21 49  1  0
 22 23  1  0
 22 27  1  0
 23 24  1  0
 23 50  1  0
 23 51  1  0
 24 26  1  0
 24 25  1  0
 24 52  1  0
 25 26  1  0
 25 53  1  0
 25 54  1  0
 26 55  1  0
 26 56  1  0
 27 28  1  0
 27 57  1  6
 28 29  1  0
 28 58  1  0
 28 59  1  0
 29 30  1  0
 29 60  1  6
 30 61  1  0
 30 62  1  0
M  END
>  <i_m_ct_stereo_status>  (73) 
1

>  <s_m_source_file>  (73) 
/var/tmp/pbs.5076255.sched01/tmpn440o9cr/0yczfkg0t.sdf

>  <i_m_source_file_index>  (73) 
29

>  <i_lp_mmshare_version>  (73) 
48012

>  <i_f3d_flags>  (73) 
0

>  <s_epik_input>  (73) 
Tz1DMWMybihbQ0gzXSlbY0hdYyhbQ0gyXTMpYzJbQ0BASF0oW0NASF00W0NASF0oTzQpW0NIMl1bQ0gyXTUpW0NIMl1OKFtDSDJdW0NIXTZbQ0gyXVtDSDJdNilbQ0BASF03W0NIMl1bQ0BIXTNbQ0BIXShbQ0BdMShbQ0BdNTc4KVtPSF0pW0NIMl1bQ0gyXTg=

>  <s_epik_cmdline>  (73) 
J2VwaWtfcHl0aG9uJywgJy1waHQnLCAnMi4wJywgJy1waCcsICc3LjAnLCAnLXRuJywgJzgnLCAnLW1hJywgJzIwMCcsICctaW1hZScsICc8aW5maWxlLm1hZT4nLCAnLW9tYWUnLCAnPG91dGZpbGUubWFlPic=

>  <r_epik_Ionization_Penalty>  (73) 
2.36455

>  <r_epik_Ionization_Penalty_Charging>  (73) 
0

>  <r_epik_Ionization_Penalty_Neutral>  (73) 
2.36455

>  <r_epik_State_Penalty>  (73) 
2.51986

>  <r_epik_Charging_Adjusted_Penalty>  (73) 
2.51986

>  <i_epik_Tot_Q>  (73) 
0

>  <i_epik_Tot_abs_Q>  (73) 
0

>  <s_lp_Force_Field>  (73) 
OPLS3e

>  <r_lp_Energy>  (73) 
200.622

>  <b_lp_Chiralities_Consistent>  (73) 
1

>  <s_lp_Variant>  (73) 
23:0-2

>  <s_i_glide_gridfile>  (73) 
pfpi4k_grid

>  <i_i_glide_lignum>  (73) 
29

>  <i_i_glide_rotatable_bonds>  (73) 
3

>  <r_i_docking_score>  (73) 
-1.57863

>  <r_i_glide_ligand_efficiency>  (73) 
-0.0526211

>  <r_i_glide_ligand_efficiency_sa>  (73) 
-0.163506

>  <r_i_glide_ligand_efficiency_ln>  (73) 
-0.358682

>  <r_i_glide_gscore>  (73) 
-1.57863

>  <r_i_glide_lipo>  (73) 
-0.183439

>  <r_i_glide_hbond>  (73) 
0

>  <r_i_glide_metal>  (73) 
-0

>  <r_i_glide_rewards>  (73) 
-0.623637

>  <r_i_glide_evdw>  (73) 
-12.4582

>  <r_i_glide_ecoul>  (73) 
-2.56334

>  <r_i_glide_erotb>  (73) 
0.235857

>  <r_i_glide_esite>  (73) 
0

>  <r_i_glide_emodel>  (73) 
-16.4859

>  <r_i_glide_energy>  (73) 
-15.0216

>  <r_i_glide_einternal>  (73) 
0.577252

>  <r_i_glide_intrahb_reward>  (73) 
-0

>  <i_i_glide_confnum>  (73) 
1

>  <i_i_glide_posenum>  (73) 
17

>  <r_i_glide_eff_state_penalty>  (73) 
0

>  <ligand_id>  (73) 
23

>  <original_smiles>  (73) 
Cn1cc2c3c1C(=O)C1(O)C4CCC15CCC1OC1C3CN(CC1CC1)C5CC4C2

>  <smiles>  (73) 
[H]OC12C(=O)c3c4c(c([H])n3C([H])([H])[H])C([H])([H])C3([H])C([H])([H])C5([H])N(C([H])([H])C6([H])C([H])([H])C6([H])[H])C([H])([H])C4([H])C4([H])OC4([H])C([H])([H])C([H])([H])C15C([H])([H])C([H])([H])C23[H]

$$$$
24:0:0
     RDKit          3D

 46 50  0  0  1  0  0  0  0  0999 V2000
    2.4527   -3.9856    4.5606 C   0  0  0  0  0  0  0  0  0  0  0  0
    2.9366   -4.4395    3.1825 C   0  0  0  0  0  0  0  0  0  0  0  0
    3.3351   -3.5796    2.1974 C   0  0  0  0  0  0  0  0  0  0  0  0
    3.3105   -2.0063    2.4932 C   0  0  0  0  0  0  0  0  0  0  0  0
    4.5908   -1.1128    2.1639 C   0  0  2  0  0  0  0  0  0  0  0  0
    5.4157   -0.6740    3.3913 C   0  0  0  0  0  0  0  0  0  0  0  0
    4.9005   -0.2975    0.8048 C   0  0  0  0  0  0  0  0  0  0  0  0
    5.1225   -1.5246   -0.3381 C   0  0  1  0  0  0  0  0  0  0  0  0
    5.0123   -1.1437   -1.7976 C   0  0  0  0  0  0  0  0  0  0  0  0
    3.7673   -1.9266   -1.6705 C   0  0  0  0  0  0  0  0  0  0  0  0
    3.9090   -1.7889   -0.0843 C   0  0  1  0  0  0  0  0  0  0  0  0
    5.1734   -1.9547    1.2002 C   0  0  2  0  0  0  0  0  0  0  0  0
    5.9787   -3.2241    1.2943 C   0  0  0  0  0  0  0  0  0  0  0  0
    5.1496   -3.2399    0.1095 C   0  0  1  0  0  0  0  0  0  0  0  0
    3.8422   -4.1243    0.7701 C   0  0  2  0  0  0  0  0  0  0  0  0
    2.5708   -4.2554   -0.1273 C   0  0  0  0  0  0  0  0  0  0  0  0
    4.3290   -5.6060    0.8949 C   0  0  0  0  0  0  0  0  0  0  0  0
    3.3756   -6.5247    1.6603 C   0  0  0  0  0  0  0  0  0  0  0  0
    2.9284   -5.9182    2.9854 C   0  0  0  0  0  0  0  0  0  0  0  0
    2.5312   -6.7080    3.8420 O   0  0  0  0  0  0  0  0  0  0  0  0
    1.9729   -4.7702    5.1469 H   0  0  0  0  0  0  0  0  0  0  0  0
    1.7117   -3.1920    4.4713 H   0  0  0  0  0  0  0  0  0  0  0  0
    3.2923   -3.6168    5.1500 H   0  0  0  0  0  0  0  0  0  0  0  0
    2.4117   -1.5958    2.0370 H   0  0  0  0  0  0  0  0  0  0  0  0
    3.1420   -1.8332    3.5538 H   0  0  0  0  0  0  0  0  0  0  0  0
    6.3281   -0.1503    3.1179 H   0  0  0  0  0  0  0  0  0  0  0  0
    5.6897   -1.5298    4.0047 H   0  0  0  0  0  0  0  0  0  0  0  0
    4.8274    0.0009    4.0105 H   0  0  0  0  0  0  0  0  0  0  0  0
    4.1506    0.4690    0.5862 H   0  0  0  0  0  0  0  0  0  0  0  0
    5.8031    0.3215    0.8781 H   0  0  0  0  0  0  0  0  0  0  0  0
    4.8700   -0.0769   -1.9747 H   0  0  0  0  0  0  0  0  0  0  0  0
    5.7814   -1.6027   -2.4143 H   0  0  0  0  0  0  0  0  0  0  0  0
    2.9029   -1.3955   -2.0790 H   0  0  0  0  0  0  0  0  0  0  0  0
    3.8694   -2.9227   -2.1097 H   0  0  0  0  0  0  0  0  0  0  0  0
    3.0565   -1.1016    0.0748 H   0  0  0  0  0  0  0  0  0  0  0  0
    6.2912   -1.6201    1.3458 H   0  0  0  0  0  0  0  0  0  0  0  0
    7.0352   -3.2710    0.9974 H   0  0  0  0  0  0  0  0  0  0  0  0
    5.7942   -3.8218    2.1856 H   0  0  0  0  0  0  0  0  0  0  0  0
    5.6129   -3.8340   -0.6850 H   0  0  0  0  0  0  0  0  0  0  0  0
    2.8111   -4.6318   -1.1170 H   0  0  0  0  0  0  0  0  0  0  0  0
    2.0173   -3.3249   -0.2435 H   0  0  0  0  0  0  0  0  0  0  0  0
    1.8409   -4.9293    0.3118 H   0  0  0  0  0  0  0  0  0  0  0  0
    4.4845   -6.0232   -0.0991 H   0  0  0  0  0  0  0  0  0  0  0  0
    5.2991   -5.6952    1.3816 H   0  0  0  0  0  0  0  0  0  0  0  0
    2.4920   -6.7874    1.0749 H   0  0  0  0  0  0  0  0  0  0  0  0
    3.8770   -7.4684    1.8751 H   0  0  0  0  0  0  0  0  0  0  0  0
  1  2  1  0
  1 21  1  0
  1 22  1  0
  1 23  1  0
  2 19  1  0
  2  3  2  0
  3 15  1  0
  3  4  1  0
  4  5  1  0
  4 24  1  0
  4 25  1  0
  5 12  1  0
  5  6  1  1
  5  7  1  0
  6 26  1  0
  6 27  1  0
  6 28  1  0
  7  8  1  0
  7 29  1  0
  7 30  1  0
  8 11  1  0
  8 14  1  0
  8  9  1  6
  9 10  1  0
  9 31  1  0
  9 32  1  0
 10 11  1  0
 10 33  1  0
 10 34  1  0
 11 12  1  0
 11 35  1  1
 12 13  1  0
 12 36  1  6
 13 14  1  0
 13 37  1  0
 13 38  1  0
 14 15  1  0
 14 39  1  6
 15 16  1  6
 15 17  1  0
 16 40  1  0
 16 41  1  0
 16 42  1  0
 17 18  1  0
 17 43  1  0
 17 44  1  0
 18 19  1  0
 18 45  1  0
 18 46  1  0
 19 20  2  0
M  END
>  <i_m_ct_stereo_status>  (74) 
1

>  <s_m_source_file>  (74) 
/var/tmp/pbs.5076255.sched01/tmpn440o9cr/0yczfkg0t.sdf

>  <i_m_source_file_index>  (74) 
30

>  <i_lp_mmshare_version>  (74) 
48012

>  <i_f3d_flags>  (74) 
0

>  <s_epik_input>  (74) 
W0NIM11DPTFDKD1PKVtDSDJdW0NIMl1bQ0BdKFtDSDNdKShbQ0BASF0yW0NIMl0zKUMxW0NIMl1bQ0BdKFtDSDNdKShbQ0gyXTQpW0NAQEhdM1tDSF0oW0NAXTI0NSlbQ0gyXVtDSDJdNQ==

>  <s_epik_cmdline>  (74) 
J2VwaWtfcHl0aG9uJywgJy1waHQnLCAnMi4wJywgJy1waCcsICc3LjAnLCAnLXRuJywgJzgnLCAnLW1hJywgJzIwMCcsICctaW1hZScsICc8aW5maWxlLm1hZT4nLCAnLW9tYWUnLCAnPG91dGZpbGUubWFlPic=

>  <r_lp_tautomer_probability>  (74) 
1

>  <r_epik_Ionization_Penalty>  (74) 
0

>  <r_epik_Ionization_Penalty_Charging>  (74) 
0

>  <r_epik_Ionization_Penalty_Neutral>  (74) 
0

>  <r_epik_State_Penalty>  (74) 
-0

>  <r_epik_Charging_Adjusted_Penalty>  (74) 
0

>  <i_epik_Tot_Q>  (74) 
0

>  <i_epik_Tot_abs_Q>  (74) 
0

>  <s_lp_Force_Field>  (74) 
OPLS3e

>  <r_lp_Energy>  (74) 
450.094

>  <b_lp_Chiralities_Consistent>  (74) 
1

>  <s_lp_Variant>  (74) 
24:0-1

>  <s_i_glide_gridfile>  (74) 
pfpi4k_grid

>  <i_i_glide_lignum>  (74) 
30

>  <i_i_glide_rotatable_bonds>  (74) 
0

>  <r_i_docking_score>  (74) 
-3.31212

>  <r_i_glide_ligand_efficiency>  (74) 
-0.165606

>  <r_i_glide_ligand_efficiency_sa>  (74) 
-0.449523

>  <r_i_glide_ligand_efficiency_ln>  (74) 
-0.828914

>  <r_i_glide_gscore>  (74) 
-3.31212

>  <r_i_glide_lipo>  (74) 
-0.650345

>  <r_i_glide_hbond>  (74) 
0

>  <r_i_glide_metal>  (74) 
-0

>  <r_i_glide_rewards>  (74) 
-1.56539

>  <r_i_glide_evdw>  (74) 
-20.9614

>  <r_i_glide_ecoul>  (74) 
-0.314775

>  <r_i_glide_erotb>  (74) 
0

>  <r_i_glide_esite>  (74) 
-0.0010919

>  <r_i_glide_emodel>  (74) 
-25.4157

>  <r_i_glide_energy>  (74) 
-21.2762

>  <r_i_glide_einternal>  (74) 
0

>  <r_i_glide_intrahb_reward>  (74) 
-0

>  <i_i_glide_confnum>  (74) 
1

>  <i_i_glide_posenum>  (74) 
1

>  <r_i_glide_eff_state_penalty>  (74) 
0

>  <ligand_id>  (74) 
24

>  <original_smiles>  (74) 
CC1=C2CC3(C)CC45CCC4C3CC5C2(C)CCC1=O

>  <smiles>  (74) 
[H]C([H])([H])C1=C2C([H])([H])C3(C([H])([H])[H])C([H])([H])C45C([H])([H])C([H])([H])C4([H])C3([H])C([H])([H])C5([H])C2(C([H])([H])[H])C([H])([H])C([H])([H])C1=O

$$$$
24:0:1
     RDKit          3D

 46 50  0  0  1  0  0  0  0  0999 V2000
    1.2715   -2.8729    4.2609 C   0  0  0  0  0  0  0  0  0  0  0  0
    2.0209   -3.7627    3.2642 C   0  0  0  0  0  0  0  0  0  0  0  0
    2.7847   -3.2816    2.2437 C   0  0  0  0  0  0  0  0  0  0  0  0
    2.9123   -1.6964    2.0488 C   0  0  0  0  0  0  0  0  0  0  0  0
    4.3538   -1.0271    1.8730 C   0  0  2  0  0  0  0  0  0  0  0  0
    4.8958   -0.2913    3.1093 C   0  0  0  0  0  0  0  0  0  0  0  0
    5.1122   -0.7174    0.4863 C   0  0  0  0  0  0  0  0  0  0  0  0
    5.4173   -2.2317   -0.1652 C   0  0  1  0  0  0  0  0  0  0  0  0
    5.7621   -2.3093   -1.6316 C   0  0  0  0  0  0  0  0  0  0  0  0
    4.4291   -2.9365   -1.6445 C   0  0  0  0  0  0  0  0  0  0  0  0
    4.1765   -2.3263   -0.1789 C   0  0  1  0  0  0  0  0  0  0  0  0
    4.9924   -2.1703    1.4055 C   0  0  2  0  0  0  0  0  0  0  0  0
    5.5796   -3.3887    2.0588 C   0  0  0  0  0  0  0  0  0  0  0  0
    5.1113   -3.7139    0.7386 C   0  0  1  0  0  0  0  0  0  0  0  0
    3.5554   -4.2562    1.2369 C   0  0  2  0  0  0  0  0  0  0  0  0
    2.5466   -4.5956    0.0803 C   0  0  0  0  0  0  0  0  0  0  0  0
    3.7704   -5.6600    1.9026 C   0  0  0  0  0  0  0  0  0  0  0  0
    2.5248   -6.2428    2.5883 C   0  0  0  0  0  0  0  0  0  0  0  0
    1.8436   -5.2287    3.4867 C   0  0  0  0  0  0  0  0  0  0  0  0
    1.1379   -5.6898    4.3759 O   0  0  0  0  0  0  0  0  0  0  0  0
    0.5540   -3.4162    4.8776 H   0  0  0  0  0  0  0  0  0  0  0  0
    0.7046   -2.1100    3.7378 H   0  0  0  0  0  0  0  0  0  0  0  0
    1.9801   -2.3926    4.9353 H   0  0  0  0  0  0  0  0  0  0  0  0
    2.2231   -1.3944    1.2650 H   0  0  0  0  0  0  0  0  0  0  0  0
    2.5033   -1.1959    2.9237 H   0  0  0  0  0  0  0  0  0  0  0  0
    5.9080    0.0753    2.9691 H   0  0  0  0  0  0  0  0  0  0  0  0
    4.8813   -0.9253    3.9933 H   0  0  0  0  0  0  0  0  0  0  0  0
    4.2689    0.5791    3.3147 H   0  0  0  0  0  0  0  0  0  0  0  0
    4.5592   -0.0069   -0.1395 H   0  0  0  0  0  0  0  0  0  0  0  0
    6.0413   -0.1366    0.6416 H   0  0  0  0  0  0  0  0  0  0  0  0
    5.8075   -1.3361   -2.1192 H   0  0  0  0  0  0  0  0  0  0  0  0
    6.5918   -2.9825   -1.8690 H   0  0  0  0  0  0  0  0  0  0  0  0
    3.7749   -2.5124   -2.4219 H   0  0  0  0  0  0  0  0  0  0  0  0
    4.4840   -4.0276   -1.7437 H   0  0  0  0  0  0  0  0  0  0  0  0
    3.4308   -1.5800   -0.4910 H   0  0  0  0  0  0  0  0  0  0  0  0
    6.0838   -1.8753    1.7178 H   0  0  0  0  0  0  0  0  0  0  0  0
    6.6529   -3.5911    2.0804 H   0  0  0  0  0  0  0  0  0  0  0  0
    5.0977   -3.6673    2.9952 H   0  0  0  0  0  0  0  0  0  0  0  0
    5.6521   -4.5593    0.3186 H   0  0  0  0  0  0  0  0  0  0  0  0
    2.9817   -5.2756   -0.6442 H   0  0  0  0  0  0  0  0  0  0  0  0
    2.1747   -3.7242   -0.4481 H   0  0  0  0  0  0  0  0  0  0  0  0
    1.6491   -5.0721    0.4516 H   0  0  0  0  0  0  0  0  0  0  0  0
    4.1113   -6.3826    1.1526 H   0  0  0  0  0  0  0  0  0  0  0  0
    4.5572   -5.6600    2.6462 H   0  0  0  0  0  0  0  0  0  0  0  0
    1.7937   -6.6317    1.8702 H   0  0  0  0  0  0  0  0  0  0  0  0
    2.8205   -7.0996    3.1887 H   0  0  0  0  0  0  0  0  0  0  0  0
  1  2  1  0
  1 21  1  0
  1 22  1  0
  1 23  1  0
  2 19  1  0
  2  3  2  0
  3 15  1  0
  3  4  1  0
  4  5  1  0
  4 24  1  0
  4 25  1  0
  5 12  1  0
  5  6  1  1
  5  7  1  0
  6 26  1  0
  6 27  1  0
  6 28  1  0
  7  8  1  0
  7 29  1  0
  7 30  1  0
  8 11  1  0
  8 14  1  0
  8  9  1  6
  9 10  1  0
  9 31  1  0
  9 32  1  0
 10 11  1  0
 10 33  1  0
 10 34  1  0
 11 12  1  0
 11 35  1  6
 12 13  1  0
 12 36  1  6
 13 14  1  0
 13 37  1  0
 13 38  1  0
 14 15  1  0
 14 39  1  6
 15 16  1  6
 15 17  1  0
 16 40  1  0
 16 41  1  0
 16 42  1  0
 17 18  1  0
 17 43  1  0
 17 44  1  0
 18 19  1  0
 18 45  1  0
 18 46  1  0
 19 20  2  0
M  END
>  <i_m_ct_stereo_status>  (75) 
1

>  <s_m_source_file>  (75) 
/var/tmp/pbs.5076255.sched01/tmpn440o9cr/0yczfkg0t.sdf

>  <i_m_source_file_index>  (75) 
30

>  <i_lp_mmshare_version>  (75) 
48012

>  <i_f3d_flags>  (75) 
0

>  <s_epik_input>  (75) 
W0NIM11DPTFDKD1PKVtDSDJdW0NIMl1bQ0BdKFtDSDNdKShbQ0BASF0yW0NIMl0zKUMxW0NIMl1bQ0BdKFtDSDNdKShbQ0gyXTQpW0NAQEhdM1tDSF0oW0NAXTI0NSlbQ0gyXVtDSDJdNQ==

>  <s_epik_cmdline>  (75) 
J2VwaWtfcHl0aG9uJywgJy1waHQnLCAnMi4wJywgJy1waCcsICc3LjAnLCAnLXRuJywgJzgnLCAnLW1hJywgJzIwMCcsICctaW1hZScsICc8aW5maWxlLm1hZT4nLCAnLW9tYWUnLCAnPG91dGZpbGUubWFlPic=

>  <r_lp_tautomer_probability>  (75) 
1

>  <r_epik_Ionization_Penalty>  (75) 
0

>  <r_epik_Ionization_Penalty_Charging>  (75) 
0

>  <r_epik_Ionization_Penalty_Neutral>  (75) 
0

>  <r_epik_State_Penalty>  (75) 
-0

>  <r_epik_Charging_Adjusted_Penalty>  (75) 
0

>  <i_epik_Tot_Q>  (75) 
0

>  <i_epik_Tot_abs_Q>  (75) 
0

>  <s_lp_Force_Field>  (75) 
OPLS3e

>  <r_lp_Energy>  (75) 
450.094

>  <b_lp_Chiralities_Consistent>  (75) 
1

>  <s_lp_Variant>  (75) 
24:0-1

>  <s_i_glide_gridfile>  (75) 
pfpi4k_grid

>  <i_i_glide_lignum>  (75) 
30

>  <i_i_glide_rotatable_bonds>  (75) 
0

>  <r_i_docking_score>  (75) 
-3.16429

>  <r_i_glide_ligand_efficiency>  (75) 
-0.158214

>  <r_i_glide_ligand_efficiency_sa>  (75) 
-0.42946

>  <r_i_glide_ligand_efficiency_ln>  (75) 
-0.791916

>  <r_i_glide_gscore>  (75) 
-3.16429

>  <r_i_glide_lipo>  (75) 
-0.459139

>  <r_i_glide_hbond>  (75) 
0

>  <r_i_glide_metal>  (75) 
-0

>  <r_i_glide_rewards>  (75) 
-1.56539

>  <r_i_glide_evdw>  (75) 
-20.7527

>  <r_i_glide_ecoul>  (75) 
-0.64181

>  <r_i_glide_erotb>  (75) 
0

>  <r_i_glide_esite>  (75) 
-0.00585058

>  <r_i_glide_emodel>  (75) 
-25.2042

>  <r_i_glide_energy>  (75) 
-21.3945

>  <r_i_glide_einternal>  (75) 
0

>  <r_i_glide_intrahb_reward>  (75) 
-0

>  <i_i_glide_confnum>  (75) 
2

>  <i_i_glide_posenum>  (75) 
27

>  <r_i_glide_eff_state_penalty>  (75) 
0

>  <ligand_id>  (75) 
24

>  <original_smiles>  (75) 
CC1=C2CC3(C)CC45CCC4C3CC5C2(C)CCC1=O

>  <smiles>  (75) 
[H]C([H])([H])C1=C2C([H])([H])C3(C([H])([H])[H])C([H])([H])C45C([H])([H])C([H])([H])C4([H])C3([H])C([H])([H])C5([H])C2(C([H])([H])[H])C([H])([H])C([H])([H])C1=O

$$$$
24:0:2
     RDKit          3D

 46 50  0  0  1  0  0  0  0  0999 V2000
    5.0631   -7.2313    3.5440 C   0  0  0  0  0  0  0  0  0  0  0  0
    4.1383   -6.4436    2.6142 C   0  0  0  0  0  0  0  0  0  0  0  0
    4.4810   -5.2541    2.0366 C   0  0  0  0  0  0  0  0  0  0  0  0
    5.9331   -4.6517    2.3220 C   0  0  0  0  0  0  0  0  0  0  0  0
    6.8517   -4.1576    1.1096 C   0  0  2  0  0  0  0  0  0  0  0  0
    8.0238   -5.0954    0.7520 C   0  0  0  0  0  0  0  0  0  0  0  0
    6.9560   -2.6661    0.4916 C   0  0  0  0  0  0  0  0  0  0  0  0
    5.4313   -2.4311   -0.2004 C   0  0  1  0  0  0  0  0  0  0  0  0
    5.0213   -1.0086   -0.5042 C   0  0  0  0  0  0  0  0  0  0  0  0
    4.1081   -1.2750    0.6301 C   0  0  0  0  0  0  0  0  0  0  0  0
    5.0243   -2.5327    0.9981 C   0  0  1  0  0  0  0  0  0  0  0  0
    5.8275   -3.9291    0.1777 C   0  0  2  0  0  0  0  0  0  0  0  0
    5.0110   -4.8472   -0.6918 C   0  0  0  0  0  0  0  0  0  0  0  0
    4.2153   -3.7206   -0.2739 C   0  0  1  0  0  0  0  0  0  0  0  0
    3.4626   -4.4690    1.0695 C   0  0  2  0  0  0  0  0  0  0  0  0
    2.6013   -3.5457    1.9962 C   0  0  0  0  0  0  0  0  0  0  0  0
    2.4131   -5.4646    0.4801 C   0  0  0  0  0  0  0  0  0  0  0  0
    1.7688   -6.3951    1.5059 C   0  0  0  0  0  0  0  0  0  0  0  0
    2.8035   -7.0716    2.3969 C   0  0  0  0  0  0  0  0  0  0  0  0
    2.4514   -8.1161    2.9442 O   0  0  0  0  0  0  0  0  0  0  0  0
    4.5675   -8.0338    4.0907 H   0  0  0  0  0  0  0  0  0  0  0  0
    5.4945   -6.5831    4.3066 H   0  0  0  0  0  0  0  0  0  0  0  0
    5.8732   -7.6860    2.9736 H   0  0  0  0  0  0  0  0  0  0  0  0
    5.8151   -3.8784    3.0774 H   0  0  0  0  0  0  0  0  0  0  0  0
    6.5505   -5.3903    2.8266 H   0  0  0  0  0  0  0  0  0  0  0  0
    8.5685   -4.7693   -0.1333 H   0  0  0  0  0  0  0  0  0  0  0  0
    7.6803   -6.1138    0.5788 H   0  0  0  0  0  0  0  0  0  0  0  0
    8.7359   -5.1271    1.5747 H   0  0  0  0  0  0  0  0  0  0  0  0
    7.2985   -1.9226    1.2195 H   0  0  0  0  0  0  0  0  0  0  0  0
    7.7486   -2.5828   -0.2637 H   0  0  0  0  0  0  0  0  0  0  0  0
    5.7989   -0.2709   -0.3003 H   0  0  0  0  0  0  0  0  0  0  0  0
    4.5309   -0.8777   -1.4683 H   0  0  0  0  0  0  0  0  0  0  0  0
    4.1332   -0.4775    1.3782 H   0  0  0  0  0  0  0  0  0  0  0  0
    3.0865   -1.4688    0.2883 H   0  0  0  0  0  0  0  0  0  0  0  0
    5.4636   -2.1269    1.9298 H   0  0  0  0  0  0  0  0  0  0  0  0
    6.4585   -4.1018   -0.7989 H   0  0  0  0  0  0  0  0  0  0  0  0
    5.0830   -4.8360   -1.7884 H   0  0  0  0  0  0  0  0  0  0  0  0
    4.8995   -5.8616   -0.3179 H   0  0  0  0  0  0  0  0  0  0  0  0
    3.4523   -3.4821   -1.0234 H   0  0  0  0  0  0  0  0  0  0  0  0
    1.8621   -2.9834    1.4280 H   0  0  0  0  0  0  0  0  0  0  0  0
    3.1840   -2.8420    2.5876 H   0  0  0  0  0  0  0  0  0  0  0  0
    2.0646   -4.1193    2.7464 H   0  0  0  0  0  0  0  0  0  0  0  0
    1.6352   -4.9114   -0.0434 H   0  0  0  0  0  0  0  0  0  0  0  0
    2.8331   -6.1066   -0.2946 H   0  0  0  0  0  0  0  0  0  0  0  0
    1.0466   -5.8798    2.1426 H   0  0  0  0  0  0  0  0  0  0  0  0
    1.2123   -7.1795    0.9922 H   0  0  0  0  0  0  0  0  0  0  0  0
  1  2  1  0
  1 21  1  0
  1 22  1  0
  1 23  1  0
  2 19  1  0
  2  3  2  0
  3 15  1  0
  3  4  1  0
  4  5  1  0
  4 24  1  0
  4 25  1  0
  5 12  1  0
  5  6  1  6
  5  7  1  0
  6 26  1  0
  6 27  1  0
  6 28  1  0
  7  8  1  0
  7 29  1  0
  7 30  1  0
  8 11  1  0
  8 14  1  0
  8  9  1  6
  9 10  1  0
  9 31  1  0
  9 32  1  0
 10 11  1  0
 10 33  1  0
 10 34  1  0
 11 12  1  0
 11 35  1  1
 12 13  1  0
 12 36  1  6
 13 14  1  0
 13 37  1  0
 13 38  1  0
 14 15  1  0
 14 39  1  6
 15 16  1  1
 15 17  1  0
 16 40  1  0
 16 41  1  0
 16 42  1  0
 17 18  1  0
 17 43  1  0
 17 44  1  0
 18 19  1  0
 18 45  1  0
 18 46  1  0
 19 20  2  0
M  END
>  <i_m_ct_stereo_status>  (76) 
1

>  <s_m_source_file>  (76) 
/var/tmp/pbs.5076255.sched01/tmpn440o9cr/0yczfkg0t.sdf

>  <i_m_source_file_index>  (76) 
30

>  <i_lp_mmshare_version>  (76) 
48012

>  <i_f3d_flags>  (76) 
0

>  <s_epik_input>  (76) 
W0NIM11DPTFDKD1PKVtDSDJdW0NIMl1bQ0BdKFtDSDNdKShbQ0BASF0yW0NIMl0zKUMxW0NIMl1bQ0BdKFtDSDNdKShbQ0gyXTQpW0NAQEhdM1tDSF0oW0NAXTI0NSlbQ0gyXVtDSDJdNQ==

>  <s_epik_cmdline>  (76) 
J2VwaWtfcHl0aG9uJywgJy1waHQnLCAnMi4wJywgJy1waCcsICc3LjAnLCAnLXRuJywgJzgnLCAnLW1hJywgJzIwMCcsICctaW1hZScsICc8aW5maWxlLm1hZT4nLCAnLW9tYWUnLCAnPG91dGZpbGUubWFlPic=

>  <r_lp_tautomer_probability>  (76) 
1

>  <r_epik_Ionization_Penalty>  (76) 
0

>  <r_epik_Ionization_Penalty_Charging>  (76) 
0

>  <r_epik_Ionization_Penalty_Neutral>  (76) 
0

>  <r_epik_State_Penalty>  (76) 
-0

>  <r_epik_Charging_Adjusted_Penalty>  (76) 
0

>  <i_epik_Tot_Q>  (76) 
0

>  <i_epik_Tot_abs_Q>  (76) 
0

>  <s_lp_Force_Field>  (76) 
OPLS3e

>  <r_lp_Energy>  (76) 
450.094

>  <b_lp_Chiralities_Consistent>  (76) 
1

>  <s_lp_Variant>  (76) 
24:0-1

>  <s_i_glide_gridfile>  (76) 
pfpi4k_grid

>  <i_i_glide_lignum>  (76) 
30

>  <i_i_glide_rotatable_bonds>  (76) 
0

>  <r_i_docking_score>  (76) 
-3.12579

>  <r_i_glide_ligand_efficiency>  (76) 
-0.156289

>  <r_i_glide_ligand_efficiency_sa>  (76) 
-0.424234

>  <r_i_glide_ligand_efficiency_ln>  (76) 
-0.782281

>  <r_i_glide_gscore>  (76) 
-3.12579

>  <r_i_glide_lipo>  (76) 
-0.503392

>  <r_i_glide_hbond>  (76) 
0

>  <r_i_glide_metal>  (76) 
-0

>  <r_i_glide_rewards>  (76) 
-1.56539

>  <r_i_glide_evdw>  (76) 
-21.0989

>  <r_i_glide_ecoul>  (76) 
0.00907753

>  <r_i_glide_erotb>  (76) 
0

>  <r_i_glide_esite>  (76) 
-0.00341698

>  <r_i_glide_emodel>  (76) 
-24.9771

>  <r_i_glide_energy>  (76) 
-21.0899

>  <r_i_glide_einternal>  (76) 
0

>  <r_i_glide_intrahb_reward>  (76) 
-0

>  <i_i_glide_confnum>  (76) 
1

>  <i_i_glide_posenum>  (76) 
6

>  <r_i_glide_eff_state_penalty>  (76) 
0

>  <ligand_id>  (76) 
24

>  <original_smiles>  (76) 
CC1=C2CC3(C)CC45CCC4C3CC5C2(C)CCC1=O

>  <smiles>  (76) 
[H]C([H])([H])C1=C2C([H])([H])C3(C([H])([H])[H])C([H])([H])C45C([H])([H])C([H])([H])C4([H])C3([H])C([H])([H])C5([H])C2(C([H])([H])[H])C([H])([H])C([H])([H])C1=O

$$$$
25:0:0
     RDKit          3D

 59 64  0  0  1  0  0  0  0  0999 V2000
    2.7855   -0.0746    1.0473 C   0  0  0  0  0  0  0  0  0  0  0  0
    2.8807   -1.4440    1.7193 C   0  0  2  0  0  0  0  0  0  0  0  0
    3.3272   -1.2702    3.2091 C   0  0  0  0  0  0  0  0  0  0  0  0
    4.7754   -1.3281    3.4296 O   0  0  0  0  0  0  0  0  0  0  0  0
    5.5659   -2.2396    2.6760 C   0  0  1  0  0  0  0  0  0  0  0  0
    5.3088   -3.6057    3.0262 O   0  0  0  0  0  0  0  0  0  0  0  0
    5.5334   -4.6921    2.1075 C   0  0  1  0  0  0  0  0  0  0  0  0
    6.8381   -4.6664    1.5431 O   0  0  0  0  0  0  0  0  0  0  0  0
    5.5560   -5.9454    3.0371 C   0  0  1  0  0  0  0  0  0  0  0  0
    4.4324   -6.0638    4.0471 C   0  0  0  0  0  0  0  0  0  0  0  0
    4.0255   -7.3170    4.2541 C   0  0  0  0  0  0  0  0  0  0  0  0
    4.7817   -8.1737    3.3483 C   0  0  0  0  0  0  0  0  0  0  0  0
    4.8075   -9.4025    3.3580 O   0  0  0  0  0  0  0  0  0  0  0  0
    5.5587   -7.3370    2.3219 C   0  0  2  0  0  0  0  0  0  0  0  0
    6.9850   -7.9272    2.1733 C   0  0  0  0  0  0  0  0  0  0  0  0
    4.7253   -7.4071    1.0082 C   0  0  0  0  0  0  0  0  0  0  0  0
    4.7486   -6.1275    0.1638 C   0  0  0  0  0  0  0  0  0  0  0  0
    4.3740   -4.8971    1.0020 C   0  0  2  0  0  0  0  0  0  0  0  0
    3.8524   -3.6315    0.1460 C   0  0  2  0  0  0  0  0  0  0  0  0
    2.4142   -3.8938   -0.2729 C   0  0  0  0  0  0  0  0  0  0  0  0
    4.7108   -3.3466   -1.1265 C   0  0  1  0  0  0  0  0  0  0  0  0
    4.1320   -2.3358   -2.1064 C   0  0  0  0  0  0  0  0  0  0  0  0
    4.3280   -0.9256   -2.1216 C   0  0  0  0  0  0  0  0  0  0  0  0
    3.6482   -0.4423   -3.2086 C   0  0  0  0  0  0  0  0  0  0  0  0
    3.0353   -1.4498   -3.8745 O   0  0  0  0  0  0  0  0  0  0  0  0
    3.3228   -2.5869   -3.1849 C   0  0  0  0  0  0  0  0  0  0  0  0
    6.0564   -3.0121   -0.8008 O   0  0  0  0  0  0  0  0  0  0  0  0
    6.3691   -2.1693    0.2087 C   0  0  0  0  0  0  0  0  0  0  0  0
    7.4984   -1.7208    0.3735 O   0  0  0  0  0  0  0  0  0  0  0  0
    5.2822   -1.8834    1.2484 C   0  0  1  0  0  0  0  0  0  0  0  0
    3.8847   -2.4208    1.0782 C   0  0  1  0  0  0  0  0  0  0  0  0
    3.7013    0.5157    1.0030 H   0  0  0  0  0  0  0  0  0  0  0  0
    1.9807    0.5331    1.4776 H   0  0  0  0  0  0  0  0  0  0  0  0
    2.5382   -0.2538    0.0216 H   0  0  0  0  0  0  0  0  0  0  0  0
    1.8847   -1.8813    1.7027 H   0  0  0  0  0  0  0  0  0  0  0  0
    2.9755   -0.3102    3.5894 H   0  0  0  0  0  0  0  0  0  0  0  0
    2.8422   -2.0330    3.8173 H   0  0  0  0  0  0  0  0  0  0  0  0
    6.6026   -2.0067    2.8276 H   0  0  0  0  0  0  0  0  0  0  0  0
    6.8618   -4.0724    0.8062 H   0  0  0  0  0  0  0  0  0  0  0  0
    6.4514   -5.8600    3.6482 H   0  0  0  0  0  0  0  0  0  0  0  0
    4.0625   -5.2070    4.5930 H   0  0  0  0  0  0  0  0  0  0  0  0
    3.2745   -7.6621    4.9655 H   0  0  0  0  0  0  0  0  0  0  0  0
    7.6226   -7.3029    1.5476 H   0  0  0  0  0  0  0  0  0  0  0  0
    6.9863   -8.9326    1.7426 H   0  0  0  0  0  0  0  0  0  0  0  0
    7.4801   -8.0135    3.1424 H   0  0  0  0  0  0  0  0  0  0  0  0
    5.0927   -8.2233    0.3901 H   0  0  0  0  0  0  0  0  0  0  0  0
    3.6780   -7.6681    1.2072 H   0  0  0  0  0  0  0  0  0  0  0  0
    5.7138   -5.9822   -0.3181 H   0  0  0  0  0  0  0  0  0  0  0  0
    4.0335   -6.2618   -0.6435 H   0  0  0  0  0  0  0  0  0  0  0  0
    3.4998   -5.2166    1.5879 H   0  0  0  0  0  0  0  0  0  0  0  0
    1.9235   -3.0106   -0.6734 H   0  0  0  0  0  0  0  0  0  0  0  0
    1.8707   -4.2192    0.6069 H   0  0  0  0  0  0  0  0  0  0  0  0
    2.3385   -4.6572   -1.0400 H   0  0  0  0  0  0  0  0  0  0  0  0
    4.7498   -4.2689   -1.7102 H   0  0  0  0  0  0  0  0  0  0  0  0
    4.8832   -0.3072   -1.4338 H   0  0  0  0  0  0  0  0  0  0  0  0
    3.4907    0.5487   -3.6020 H   0  0  0  0  0  0  0  0  0  0  0  0
    2.8814   -3.4811   -3.6044 H   0  0  0  0  0  0  0  0  0  0  0  0
    5.2733   -0.8005    1.2338 H   0  0  0  0  0  0  0  0  0  0  0  0
    3.5611   -3.0568    1.8927 H   0  0  0  0  0  0  0  0  0  0  0  0
  1  2  1  0
  1 32  1  0
  1 33  1  0
  1 34  1  0
  2 31  1  0
  2  3  1  0
  2 35  1  1
  3  4  1  0
  3 36  1  0
  3 37  1  0
  4  5  1  0
  5 30  1  0
  5  6  1  0
  5 38  1  1
  6  7  1  0
  7 18  1  0
  7  8  1  6
  7  9  1  0
  8 39  1  0
  9 14  1  0
  9 10  1  0
  9 40  1  1
 10 11  2  0
 10 41  1  0
 11 12  1  0
 11 42  1  0
 12 13  2  0
 12 14  1  0
 14 15  1  6
 14 16  1  0
 15 43  1  0
 15 44  1  0
 15 45  1  0
 16 17  1  0
 16 46  1  0
 16 47  1  0
 17 18  1  0
 17 48  1  0
 17 49  1  0
 18 19  1  0
 18 50  1  1
 19 31  1  0
 19 20  1  6
 19 21  1  0
 20 51  1  0
 20 52  1  0
 20 53  1  0
 21 22  1  0
 21 27  1  0
 21 54  1  6
 22 26  2  0
 22 23  1  0
 23 24  2  0
 23 55  1  0
 24 25  1  0
 24 56  1  0
 25 26  1  0
 26 57  1  0
 27 28  1  0
 28 29  2  0
 28 30  1  0
 30 31  1  0
 30 58  1  1
 31 59  1  1
M  END
>  <i_m_ct_stereo_status>  (77) 
1

>  <s_m_source_file>  (77) 
/var/tmp/pbs.5076255.sched01/tmpn440o9cr/0yczfkg0t.sdf

>  <i_m_source_file_index>  (77) 
31

>  <i_lp_mmshare_version>  (77) 
48012

>  <i_f3d_flags>  (77) 
0

>  <s_epik_input>  (77) 
W2NIXTFvW2NIXVtjSF1jMVtDQEhdMk9DKD1PKVtDQEhdKFtDQEhdKE8zKU9bQ0gyXVtDQEhdNFtDSDNdKVtDSF00W0NAXTIoW0NIM10pW0NASF01W0NIMl1bQ0gyXVtDQEBdKFtDSDNdKShbQ0BIXTZbQ0BdMzVbT0hdKUMoPU8pW0NIXT1bQ0hdNg==

>  <s_epik_cmdline>  (77) 
J2VwaWtfcHl0aG9uJywgJy1waHQnLCAnMi4wJywgJy1waCcsICc3LjAnLCAnLXRuJywgJzgnLCAnLW1hJywgJzIwMCcsICctaW1hZScsICc8aW5maWxlLm1hZT4nLCAnLW9tYWUnLCAnPG91dGZpbGUubWFlPic=

>  <r_lp_tautomer_probability>  (77) 
1

>  <r_epik_Ionization_Penalty>  (77) 
3.81543e-07

>  <r_epik_Ionization_Penalty_Charging>  (77) 
0

>  <r_epik_Ionization_Penalty_Neutral>  (77) 
3.81543e-07

>  <r_epik_State_Penalty>  (77) 
-0

>  <r_epik_Charging_Adjusted_Penalty>  (77) 
0

>  <i_epik_Tot_Q>  (77) 
0

>  <i_epik_Tot_abs_Q>  (77) 
0

>  <s_epik_Chemistry_Notes>  (77) 
This compound has an ester and may undergo hydrolysis at high or low pH. This compound contains an acetal/aminal-like group ( X-CH(R)-Y where X, Y are N, S, or O) that may be acid/base labile, releasing an aldehyde.

>  <s_lp_Force_Field>  (77) 
OPLS3e

>  <r_lp_Energy>  (77) 
97.2122

>  <b_lp_Chiralities_Consistent>  (77) 
1

>  <s_lp_Variant>  (77) 
25:0-1

>  <s_i_glide_gridfile>  (77) 
pfpi4k_grid

>  <i_i_glide_lignum>  (77) 
31

>  <i_i_glide_rotatable_bonds>  (77) 
2

>  <r_i_docking_score>  (77) 
-3.13194

>  <r_i_glide_ligand_efficiency>  (77) 
-0.10103

>  <r_i_glide_ligand_efficiency_sa>  (77) 
-0.317375

>  <r_i_glide_ligand_efficiency_ln>  (77) 
-0.706349

>  <r_i_glide_gscore>  (77) 
-3.13194

>  <r_i_glide_lipo>  (77) 
-0.693741

>  <r_i_glide_hbond>  (77) 
-0.0247945

>  <r_i_glide_metal>  (77) 
-0

>  <r_i_glide_rewards>  (77) 
-0.635292

>  <r_i_glide_evdw>  (77) 
-28.2434

>  <r_i_glide_ecoul>  (77) 
-3.16067

>  <r_i_glide_erotb>  (77) 
0.108197

>  <r_i_glide_esite>  (77) 
-4.2642e-05

>  <r_i_glide_emodel>  (77) 
-36.5706

>  <r_i_glide_energy>  (77) 
-31.4041

>  <r_i_glide_einternal>  (77) 
0.142058

>  <r_i_glide_intrahb_reward>  (77) 
-0

>  <i_i_glide_confnum>  (77) 
2

>  <i_i_glide_posenum>  (77) 
4

>  <r_i_glide_eff_state_penalty>  (77) 
0

>  <ligand_id>  (77) 
25

>  <original_smiles>  (77) 
CC1COC2OC3(O)C4C=CC(=O)C4(C)CCC3C3(C)C(c4ccoc4)OC(=O)C2C13

>  <smiles>  (77) 
[H]OC12OC3([H])OC([H])([H])C([H])(C([H])([H])[H])C4([H])C3([H])C(=O)OC([H])(c3c([H])oc([H])c3[H])C4(C([H])([H])[H])C1([H])C([H])([H])C([H])([H])C1(C([H])([H])[H])C(=O)C([H])=C([H])C21[H]

$$$$
25:0:1
     RDKit          3D

 59 64  0  0  1  0  0  0  0  0999 V2000
   -0.9039    0.0157    5.6409 C   0  0  0  0  0  0  0  0  0  0  0  0
   -0.2296   -0.8452    4.5564 C   0  0  2  0  0  0  0  0  0  0  0  0
   -0.1136   -2.3686    4.9740 C   0  0  0  0  0  0  0  0  0  0  0  0
    1.1450   -2.7953    5.5797 O   0  0  0  0  0  0  0  0  0  0  0  0
    2.3825   -2.2330    5.1539 C   0  0  1  0  0  0  0  0  0  0  0  0
    2.7461   -2.6505    3.8277 O   0  0  0  0  0  0  0  0  0  0  0  0
    3.5538   -1.8337    2.9575 C   0  0  1  0  0  0  0  0  0  0  0  0
    4.7502   -1.4003    3.5739 O   0  0  0  0  0  0  0  0  0  0  0  0
    4.0479   -2.8587    1.8886 C   0  0  1  0  0  0  0  0  0  0  0  0
    2.9865   -3.7435    1.2702 C   0  0  0  0  0  0  0  0  0  0  0  0
    3.1979   -4.0007   -0.0198 C   0  0  0  0  0  0  0  0  0  0  0  0
    4.3782   -3.2584   -0.4373 C   0  0  0  0  0  0  0  0  0  0  0  0
    4.9728   -3.3733   -1.5103 O   0  0  0  0  0  0  0  0  0  0  0  0
    4.8031   -2.2601    0.6510 C   0  0  2  0  0  0  0  0  0  0  0  0
    6.3371   -2.3204    0.8206 C   0  0  0  0  0  0  0  0  0  0  0  0
    4.2991   -0.8573    0.1876 C   0  0  0  0  0  0  0  0  0  0  0  0
    3.8178    0.0809    1.3030 C   0  0  0  0  0  0  0  0  0  0  0  0
    2.7908   -0.6192    2.2100 C   0  0  2  0  0  0  0  0  0  0  0  0
    1.8446    0.3796    3.0529 C   0  0  2  0  0  0  0  0  0  0  0  0
    0.7439    0.9360    2.1179 C   0  0  0  0  0  0  0  0  0  0  0  0
    2.6308    1.5687    3.6991 C   0  0  1  0  0  0  0  0  0  0  0  0
    1.7789    2.6865    4.2908 C   0  0  0  0  0  0  0  0  0  0  0  0
    1.3001    2.8021    5.6304 C   0  0  0  0  0  0  0  0  0  0  0  0
    0.6137    3.9820    5.7139 C   0  0  0  0  0  0  0  0  0  0  0  0
    0.6214    4.6223    4.5175 O   0  0  0  0  0  0  0  0  0  0  0  0
    1.3293    3.8228    3.6700 C   0  0  0  0  0  0  0  0  0  0  0  0
    3.6076    1.1403    4.6445 O   0  0  0  0  0  0  0  0  0  0  0  0
    3.3872    0.1534    5.5416 C   0  0  0  0  0  0  0  0  0  0  0  0
    4.1438   -0.0798    6.4785 O   0  0  0  0  0  0  0  0  0  0  0  0
    2.1609   -0.7402    5.3023 C   0  0  1  0  0  0  0  0  0  0  0  0
    1.2049   -0.4514    4.1632 C   0  0  1  0  0  0  0  0  0  0  0  0
   -0.3698    0.0002    6.5899 H   0  0  0  0  0  0  0  0  0  0  0  0
   -1.9155   -0.3429    5.8325 H   0  0  0  0  0  0  0  0  0  0  0  0
   -0.9913    1.0513    5.3144 H   0  0  0  0  0  0  0  0  0  0  0  0
   -0.8821   -0.7842    3.6813 H   0  0  0  0  0  0  0  0  0  0  0  0
   -0.9334   -2.6449    5.6361 H   0  0  0  0  0  0  0  0  0  0  0  0
   -0.2530   -2.9786    4.0815 H   0  0  0  0  0  0  0  0  0  0  0  0
    3.1544   -2.5830    5.8390 H   0  0  0  0  0  0  0  0  0  0  0  0
    5.3259   -1.0746    2.8972 H   0  0  0  0  0  0  0  0  0  0  0  0
    4.7045   -3.5557    2.4113 H   0  0  0  0  0  0  0  0  0  0  0  0
    2.1870   -4.1630    1.8655 H   0  0  0  0  0  0  0  0  0  0  0  0
    2.6162   -4.6465   -0.6664 H   0  0  0  0  0  0  0  0  0  0  0  0
    6.6810   -1.7169    1.6573 H   0  0  0  0  0  0  0  0  0  0  0  0
    6.8670   -1.9766   -0.0670 H   0  0  0  0  0  0  0  0  0  0  0  0
    6.6762   -3.3408    1.0032 H   0  0  0  0  0  0  0  0  0  0  0  0
    5.0847   -0.3502   -0.3690 H   0  0  0  0  0  0  0  0  0  0  0  0
    3.4765   -0.9586   -0.5259 H   0  0  0  0  0  0  0  0  0  0  0  0
    4.6512    0.4838    1.8690 H   0  0  0  0  0  0  0  0  0  0  0  0
    3.3446    0.9518    0.8545 H   0  0  0  0  0  0  0  0  0  0  0  0
    2.1030   -1.1280    1.5282 H   0  0  0  0  0  0  0  0  0  0  0  0
   -0.0188    1.4872    2.6688 H   0  0  0  0  0  0  0  0  0  0  0  0
    0.2295    0.1442    1.5738 H   0  0  0  0  0  0  0  0  0  0  0  0
    1.1641    1.6187    1.3794 H   0  0  0  0  0  0  0  0  0  0  0  0
    3.1833    2.0676    2.9017 H   0  0  0  0  0  0  0  0  0  0  0  0
    1.4487    2.1177    6.4502 H   0  0  0  0  0  0  0  0  0  0  0  0
    0.0979    4.4909    6.5129 H   0  0  0  0  0  0  0  0  0  0  0  0
    1.4208    4.2171    2.6657 H   0  0  0  0  0  0  0  0  0  0  0  0
    1.6410   -0.6237    6.2489 H   0  0  0  0  0  0  0  0  0  0  0  0
    1.1081   -1.2770    3.4691 H   0  0  0  0  0  0  0  0  0  0  0  0
  1  2  1  0
  1 32  1  0
  1 33  1  0
  1 34  1  0
  2 31  1  0
  2  3  1  0
  2 35  1  6
  3  4  1  0
  3 36  1  0
  3 37  1  0
  4  5  1  0
  5 30  1  0
  5  6  1  0
  5 38  1  1
  6  7  1  0
  7 18  1  0
  7  8  1  1
  7  9  1  0
  8 39  1  0
  9 14  1  0
  9 10  1  0
  9 40  1  1
 10 11  2  0
 10 41  1  0
 11 12  1  0
 11 42  1  0
 12 13  2  0
 12 14  1  0
 14 15  1  1
 14 16  1  0
 15 43  1  0
 15 44  1  0
 15 45  1  0
 16 17  1  0
 16 46  1  0
 16 47  1  0
 17 18  1  0
 17 48  1  0
 17 49  1  0
 18 19  1  0
 18 50  1  6
 19 31  1  0
 19 20  1  6
 19 21  1  0
 20 51  1  0
 20 52  1  0
 20 53  1  0
 21 22  1  0
 21 27  1  0
 21 54  1  6
 22 26  2  0
 22 23  1  0
 23 24  2  0
 23 55  1  0
 24 25  1  0
 24 56  1  0
 25 26  1  0
 26 57  1  0
 27 28  1  0
 28 29  2  0
 28 30  1  0
 30 31  1  0
 30 58  1  1
 31 59  1  6
M  END
>  <i_m_ct_stereo_status>  (78) 
1

>  <s_m_source_file>  (78) 
/var/tmp/pbs.5076255.sched01/tmpn440o9cr/0yczfkg0t.sdf

>  <i_m_source_file_index>  (78) 
31

>  <i_lp_mmshare_version>  (78) 
48012

>  <i_f3d_flags>  (78) 
0

>  <s_epik_input>  (78) 
W2NIXTFvW2NIXVtjSF1jMVtDQEhdMk9DKD1PKVtDQEhdKFtDQEhdKE8zKU9bQ0gyXVtDQEhdNFtDSDNdKVtDSF00W0NAXTIoW0NIM10pW0NASF01W0NIMl1bQ0gyXVtDQEBdKFtDSDNdKShbQ0BIXTZbQ0BdMzVbT0hdKUMoPU8pW0NIXT1bQ0hdNg==

>  <s_epik_cmdline>  (78) 
J2VwaWtfcHl0aG9uJywgJy1waHQnLCAnMi4wJywgJy1waCcsICc3LjAnLCAnLXRuJywgJzgnLCAnLW1hJywgJzIwMCcsICctaW1hZScsICc8aW5maWxlLm1hZT4nLCAnLW9tYWUnLCAnPG91dGZpbGUubWFlPic=

>  <r_lp_tautomer_probability>  (78) 
1

>  <r_epik_Ionization_Penalty>  (78) 
3.81543e-07

>  <r_epik_Ionization_Penalty_Charging>  (78) 
0

>  <r_epik_Ionization_Penalty_Neutral>  (78) 
3.81543e-07

>  <r_epik_State_Penalty>  (78) 
-0

>  <r_epik_Charging_Adjusted_Penalty>  (78) 
0

>  <i_epik_Tot_Q>  (78) 
0

>  <i_epik_Tot_abs_Q>  (78) 
0

>  <s_epik_Chemistry_Notes>  (78) 
This compound has an ester and may undergo hydrolysis at high or low pH. This compound contains an acetal/aminal-like group ( X-CH(R)-Y where X, Y are N, S, or O) that may be acid/base labile, releasing an aldehyde.

>  <s_lp_Force_Field>  (78) 
OPLS3e

>  <r_lp_Energy>  (78) 
97.2122

>  <b_lp_Chiralities_Consistent>  (78) 
1

>  <s_lp_Variant>  (78) 
25:0-1

>  <s_i_glide_gridfile>  (78) 
pfpi4k_grid

>  <i_i_glide_lignum>  (78) 
31

>  <i_i_glide_rotatable_bonds>  (78) 
2

>  <r_i_docking_score>  (78) 
-2.38895

>  <r_i_glide_ligand_efficiency>  (78) 
-0.0770629

>  <r_i_glide_ligand_efficiency_sa>  (78) 
-0.242084

>  <r_i_glide_ligand_efficiency_ln>  (78) 
-0.538781

>  <r_i_glide_gscore>  (78) 
-2.38895

>  <r_i_glide_lipo>  (78) 
-0.148762

>  <r_i_glide_hbond>  (78) 
0

>  <r_i_glide_metal>  (78) 
-0

>  <r_i_glide_rewards>  (78) 
-0.536601

>  <r_i_glide_evdw>  (78) 
-28.9775

>  <r_i_glide_ecoul>  (78) 
-2.41689

>  <r_i_glide_erotb>  (78) 
0.108197

>  <r_i_glide_esite>  (78) 
-0.000376144

>  <r_i_glide_emodel>  (78) 
-34.9425

>  <r_i_glide_energy>  (78) 
-31.3944

>  <r_i_glide_einternal>  (78) 
1.73066

>  <r_i_glide_intrahb_reward>  (78) 
-0

>  <i_i_glide_confnum>  (78) 
1

>  <i_i_glide_posenum>  (78) 
35

>  <r_i_glide_eff_state_penalty>  (78) 
0

>  <ligand_id>  (78) 
25

>  <original_smiles>  (78) 
CC1COC2OC3(O)C4C=CC(=O)C4(C)CCC3C3(C)C(c4ccoc4)OC(=O)C2C13

>  <smiles>  (78) 
[H]OC12OC3([H])OC([H])([H])C([H])(C([H])([H])[H])C4([H])C3([H])C(=O)OC([H])(c3c([H])oc([H])c3[H])C4(C([H])([H])[H])C1([H])C([H])([H])C([H])([H])C1(C([H])([H])[H])C(=O)C([H])=C([H])C21[H]

$$$$
25:0:2
     RDKit          3D

 59 64  0  0  1  0  0  0  0  0999 V2000
   -0.9037    0.2274    5.5521 C   0  0  0  0  0  0  0  0  0  0  0  0
   -0.2376   -0.6752    4.4987 C   0  0  2  0  0  0  0  0  0  0  0  0
   -0.1684   -2.1925    4.9484 C   0  0  0  0  0  0  0  0  0  0  0  0
    1.0669   -2.6422    5.5832 O   0  0  0  0  0  0  0  0  0  0  0  0
    2.3230   -2.1176    5.1675 C   0  0  1  0  0  0  0  0  0  0  0  0
    2.6967   -2.5626    3.8553 O   0  0  0  0  0  0  0  0  0  0  0  0
    3.5555   -1.7898    2.9913 C   0  0  1  0  0  0  0  0  0  0  0  0
    4.7633   -1.3920    3.6220 O   0  0  0  0  0  0  0  0  0  0  0  0
    4.0292   -2.8503    1.9424 C   0  0  1  0  0  0  0  0  0  0  0  0
    2.9551   -3.7206    1.3228 C   0  0  0  0  0  0  0  0  0  0  0  0
    3.1792   -4.0141    0.0406 C   0  0  0  0  0  0  0  0  0  0  0  0
    4.3840   -3.3105   -0.3764 C   0  0  0  0  0  0  0  0  0  0  0  0
    4.9904   -3.4644   -1.4392 O   0  0  0  0  0  0  0  0  0  0  0  0
    4.8164   -2.3002    0.6993 C   0  0  2  0  0  0  0  0  0  0  0  0
    6.3448   -2.3969    0.8885 C   0  0  0  0  0  0  0  0  0  0  0  0
    4.3573   -0.8954    0.1983 C   0  0  0  0  0  0  0  0  0  0  0  0
    3.8845    0.0770    1.2869 C   0  0  0  0  0  0  0  0  0  0  0  0
    2.8316   -0.5743    2.2010 C   0  0  2  0  0  0  0  0  0  0  0  0
    1.8935    0.4634    3.0069 C   0  0  2  0  0  0  0  0  0  0  0  0
    0.8230    1.0342    2.0457 C   0  0  0  0  0  0  0  0  0  0  0  0
    2.7006    1.6374    3.6490 C   0  0  1  0  0  0  0  0  0  0  0  0
    1.8830    2.8000    4.1948 C   0  0  0  0  0  0  0  0  0  0  0  0
    1.5475    4.0042    3.5084 C   0  0  0  0  0  0  0  0  0  0  0  0
    0.8330    4.7799    4.3806 C   0  0  0  0  0  0  0  0  0  0  0  0
    0.6968    4.1498    5.5756 O   0  0  0  0  0  0  0  0  0  0  0  0
    1.3427    2.9575    5.4442 C   0  0  0  0  0  0  0  0  0  0  0  0
    3.6524    1.1908    4.6094 O   0  0  0  0  0  0  0  0  0  0  0  0
    3.3798    0.2483    5.5322 C   0  0  0  0  0  0  0  0  0  0  0  0
    4.1292    0.0055    6.4719 O   0  0  0  0  0  0  0  0  0  0  0  0
    2.1362   -0.6183    5.2875 C   0  0  1  0  0  0  0  0  0  0  0  0
    1.2113   -0.3277    4.1223 C   0  0  1  0  0  0  0  0  0  0  0  0
   -0.3850    0.2188    6.5095 H   0  0  0  0  0  0  0  0  0  0  0  0
   -1.9277   -0.1001    5.7350 H   0  0  0  0  0  0  0  0  0  0  0  0
   -0.9588    1.2576    5.2009 H   0  0  0  0  0  0  0  0  0  0  0  0
   -0.8770   -0.6151    3.6141 H   0  0  0  0  0  0  0  0  0  0  0  0
   -1.0040   -2.4314    5.6052 H   0  0  0  0  0  0  0  0  0  0  0  0
   -0.3129   -2.8168    4.0661 H   0  0  0  0  0  0  0  0  0  0  0  0
    3.0783   -2.4752    5.8668 H   0  0  0  0  0  0  0  0  0  0  0  0
    4.5968   -0.6279    4.1526 H   0  0  0  0  0  0  0  0  0  0  0  0
    4.6617   -3.5547    2.4817 H   0  0  0  0  0  0  0  0  0  0  0  0
    2.1344   -4.1085    1.9101 H   0  0  0  0  0  0  0  0  0  0  0  0
    2.5922   -4.6575   -0.6050 H   0  0  0  0  0  0  0  0  0  0  0  0
    6.6793   -1.7811    1.7194 H   0  0  0  0  0  0  0  0  0  0  0  0
    6.9006   -2.0832    0.0051 H   0  0  0  0  0  0  0  0  0  0  0  0
    6.6572   -3.4197    1.1021 H   0  0  0  0  0  0  0  0  0  0  0  0
    5.1666   -0.4202   -0.3557 H   0  0  0  0  0  0  0  0  0  0  0  0
    3.5443   -0.9884   -0.5265 H   0  0  0  0  0  0  0  0  0  0  0  0
    4.7240    0.4618    1.8588 H   0  0  0  0  0  0  0  0  0  0  0  0
    3.4466    0.9482    0.8061 H   0  0  0  0  0  0  0  0  0  0  0  0
    2.1416   -1.0766    1.5164 H   0  0  0  0  0  0  0  0  0  0  0  0
    0.0684    1.6205    2.5714 H   0  0  0  0  0  0  0  0  0  0  0  0
    0.2963    0.2463    1.5063 H   0  0  0  0  0  0  0  0  0  0  0  0
    1.2749    1.6878    1.2995 H   0  0  0  0  0  0  0  0  0  0  0  0
    3.2788    2.1055    2.8527 H   0  0  0  0  0  0  0  0  0  0  0  0
    1.7931    4.2829    2.4941 H   0  0  0  0  0  0  0  0  0  0  0  0
    0.3811    5.7581    4.3125 H   0  0  0  0  0  0  0  0  0  0  0  0
    1.3305    2.3502    6.3377 H   0  0  0  0  0  0  0  0  0  0  0  0
    1.6011   -0.4695    6.2200 H   0  0  0  0  0  0  0  0  0  0  0  0
    1.1020   -1.1604    3.4385 H   0  0  0  0  0  0  0  0  0  0  0  0
  1  2  1  0
  1 32  1  0
  1 33  1  0
  1 34  1  0
  2 31  1  0
  2  3  1  0
  2 35  1  6
  3  4  1  0
  3 36  1  0
  3 37  1  0
  4  5  1  0
  5 30  1  0
  5  6  1  0
  5 38  1  1
  6  7  1  0
  7 18  1  0
  7  8  1  1
  7  9  1  0
  8 39  1  0
  9 14  1  0
  9 10  1  0
  9 40  1  1
 10 11  2  0
 10 41  1  0
 11 12  1  0
 11 42  1  0
 12 13  2  0
 12 14  1  0
 14 15  1  1
 14 16  1  0
 15 43  1  0
 15 44  1  0
 15 45  1  0
 16 17  1  0
 16 46  1  0
 16 47  1  0
 17 18  1  0
 17 48  1  0
 17 49  1  0
 18 19  1  0
 18 50  1  6
 19 31  1  0
 19 20  1  6
 19 21  1  0
 20 51  1  0
 20 52  1  0
 20 53  1  0
 21 22  1  0
 21 27  1  0
 21 54  1  6
 22 26  2  0
 22 23  1  0
 23 24  2  0
 23 55  1  0
 24 25  1  0
 24 56  1  0
 25 26  1  0
 26 57  1  0
 27 28  1  0
 28 29  2  0
 28 30  1  0
 30 31  1  0
 30 58  1  1
 31 59  1  6
M  END
>  <i_m_ct_stereo_status>  (79) 
1

>  <s_m_source_file>  (79) 
/var/tmp/pbs.5076255.sched01/tmpn440o9cr/0yczfkg0t.sdf

>  <i_m_source_file_index>  (79) 
31

>  <i_lp_mmshare_version>  (79) 
48012

>  <i_f3d_flags>  (79) 
0

>  <s_epik_input>  (79) 
W2NIXTFvW2NIXVtjSF1jMVtDQEhdMk9DKD1PKVtDQEhdKFtDQEhdKE8zKU9bQ0gyXVtDQEhdNFtDSDNdKVtDSF00W0NAXTIoW0NIM10pW0NASF01W0NIMl1bQ0gyXVtDQEBdKFtDSDNdKShbQ0BIXTZbQ0BdMzVbT0hdKUMoPU8pW0NIXT1bQ0hdNg==

>  <s_epik_cmdline>  (79) 
J2VwaWtfcHl0aG9uJywgJy1waHQnLCAnMi4wJywgJy1waCcsICc3LjAnLCAnLXRuJywgJzgnLCAnLW1hJywgJzIwMCcsICctaW1hZScsICc8aW5maWxlLm1hZT4nLCAnLW9tYWUnLCAnPG91dGZpbGUubWFlPic=

>  <r_lp_tautomer_probability>  (79) 
1

>  <r_epik_Ionization_Penalty>  (79) 
3.81543e-07

>  <r_epik_Ionization_Penalty_Charging>  (79) 
0

>  <r_epik_Ionization_Penalty_Neutral>  (79) 
3.81543e-07

>  <r_epik_State_Penalty>  (79) 
-0

>  <r_epik_Charging_Adjusted_Penalty>  (79) 
0

>  <i_epik_Tot_Q>  (79) 
0

>  <i_epik_Tot_abs_Q>  (79) 
0

>  <s_epik_Chemistry_Notes>  (79) 
This compound has an ester and may undergo hydrolysis at high or low pH. This compound contains an acetal/aminal-like group ( X-CH(R)-Y where X, Y are N, S, or O) that may be acid/base labile, releasing an aldehyde.

>  <s_lp_Force_Field>  (79) 
OPLS3e

>  <r_lp_Energy>  (79) 
97.2122

>  <b_lp_Chiralities_Consistent>  (79) 
1

>  <s_lp_Variant>  (79) 
25:0-1

>  <s_i_glide_gridfile>  (79) 
pfpi4k_grid

>  <i_i_glide_lignum>  (79) 
31

>  <i_i_glide_rotatable_bonds>  (79) 
2

>  <r_i_docking_score>  (79) 
-2.32975

>  <r_i_glide_ligand_efficiency>  (79) 
-0.0751531

>  <r_i_glide_ligand_efficiency_sa>  (79) 
-0.236085

>  <r_i_glide_ligand_efficiency_ln>  (79) 
-0.525429

>  <r_i_glide_gscore>  (79) 
-2.32975

>  <r_i_glide_lipo>  (79) 
-0.152191

>  <r_i_glide_hbond>  (79) 
0

>  <r_i_glide_metal>  (79) 
-0

>  <r_i_glide_rewards>  (79) 
-0.541797

>  <r_i_glide_evdw>  (79) 
-29.1047

>  <r_i_glide_ecoul>  (79) 
-1.92235

>  <r_i_glide_erotb>  (79) 
0.108197

>  <r_i_glide_esite>  (79) 
-0.000368245

>  <r_i_glide_emodel>  (79) 
-35.2761

>  <r_i_glide_energy>  (79) 
-31.0271

>  <r_i_glide_einternal>  (79) 
0.0193574

>  <r_i_glide_intrahb_reward>  (79) 
-0

>  <i_i_glide_confnum>  (79) 
1

>  <i_i_glide_posenum>  (79) 
2

>  <r_i_glide_eff_state_penalty>  (79) 
0

>  <ligand_id>  (79) 
25

>  <original_smiles>  (79) 
CC1COC2OC3(O)C4C=CC(=O)C4(C)CCC3C3(C)C(c4ccoc4)OC(=O)C2C13

>  <smiles>  (79) 
[H]OC12OC3([H])OC([H])([H])C([H])(C([H])([H])[H])C4([H])C3([H])C(=O)OC([H])(c3c([H])oc([H])c3[H])C4(C([H])([H])[H])C1([H])C([H])([H])C([H])([H])C1(C([H])([H])[H])C(=O)C([H])=C([H])C21[H]

$$$$
25:1:0
     RDKit          3D

 59 64  0  0  1  0  0  0  0  0999 V2000
    6.3236   -5.6929    3.3550 C   0  0  0  0  0  0  0  0  0  0  0  0
    5.8381   -5.0125    2.0540 C   0  0  2  0  0  0  0  0  0  0  0  0
    6.9982   -4.8216    1.0541 C   0  0  0  0  0  0  0  0  0  0  0  0
    7.6646   -3.5872    1.2632 O   0  0  0  0  0  0  0  0  0  0  0  0
    6.8590   -2.4569    1.1302 C   0  0  1  0  0  0  0  0  0  0  0  0
    6.3853   -2.3863   -0.1653 O   0  0  0  0  0  0  0  0  0  0  0  0
    5.0597   -2.1095   -0.4628 C   0  0  1  0  0  0  0  0  0  0  0  0
    4.6797   -0.7891   -0.1097 O   0  0  0  0  0  0  0  0  0  0  0  0
    5.2334   -2.0980   -1.9987 C   0  0  1  0  0  0  0  0  0  0  0  0
    5.8295   -3.3594   -2.5716 C   0  0  0  0  0  0  0  0  0  0  0  0
    5.1417   -3.8331   -3.6006 C   0  0  0  0  0  0  0  0  0  0  0  0
    3.9535   -3.0535   -3.8098 C   0  0  0  0  0  0  0  0  0  0  0  0
    3.1217   -3.1743   -4.6867 O   0  0  0  0  0  0  0  0  0  0  0  0
    3.9272   -1.9340   -2.7932 C   0  0  2  0  0  0  0  0  0  0  0  0
    3.8425   -0.5881   -3.5447 C   0  0  0  0  0  0  0  0  0  0  0  0
    2.7187   -2.1603   -1.9494 C   0  0  0  0  0  0  0  0  0  0  0  0
    2.7416   -3.2021   -0.8270 C   0  0  0  0  0  0  0  0  0  0  0  0
    4.0387   -3.2456    0.0124 C   0  0  2  0  0  0  0  0  0  0  0  0
    3.7448   -3.3998    1.5668 C   0  0  2  0  0  0  0  0  0  0  0  0
    2.8044   -4.6170    1.7663 C   0  0  0  0  0  0  0  0  0  0  0  0
    3.0809   -2.1326    2.2571 C   0  0  1  0  0  0  0  0  0  0  0  0
    2.2671   -2.3913    3.5231 C   0  0  0  0  0  0  0  0  0  0  0  0
    0.9564   -1.8512    3.7808 C   0  0  0  0  0  0  0  0  0  0  0  0
    0.5987   -2.2852    5.0094 C   0  0  0  0  0  0  0  0  0  0  0  0
    1.5726   -3.0379    5.5774 O   0  0  0  0  0  0  0  0  0  0  0  0
    2.5768   -3.0624    4.6593 C   0  0  0  0  0  0  0  0  0  0  0  0
    3.9207   -1.0067    2.4734 O   0  0  0  0  0  0  0  0  0  0  0  0
    5.2267   -1.1290    2.7345 C   0  0  0  0  0  0  0  0  0  0  0  0
    5.9287   -0.2465    3.2132 O   0  0  0  0  0  0  0  0  0  0  0  0
    5.8448   -2.4562    2.2898 C   0  0  1  0  0  0  0  0  0  0  0  0
    5.0229   -3.7136    2.3317 C   0  0  2  0  0  0  0  0  0  0  0  0
    7.0091   -5.0623    3.9164 H   0  0  0  0  0  0  0  0  0  0  0  0
    6.8420   -6.6298    3.1450 H   0  0  0  0  0  0  0  0  0  0  0  0
    5.4897   -5.9370    4.0158 H   0  0  0  0  0  0  0  0  0  0  0  0
    5.1812   -5.7467    1.6053 H   0  0  0  0  0  0  0  0  0  0  0  0
    7.7251   -5.6323    1.1597 H   0  0  0  0  0  0  0  0  0  0  0  0
    6.6364   -4.8554    0.0279 H   0  0  0  0  0  0  0  0  0  0  0  0
    7.5196   -1.5977    1.2430 H   0  0  0  0  0  0  0  0  0  0  0  0
    4.2756   -0.7882    0.7493 H   0  0  0  0  0  0  0  0  0  0  0  0
    5.9183   -1.2976   -2.2545 H   0  0  0  0  0  0  0  0  0  0  0  0
    6.7555   -3.7830   -2.2101 H   0  0  0  0  0  0  0  0  0  0  0  0
    5.3964   -4.6572   -4.2413 H   0  0  0  0  0  0  0  0  0  0  0  0
    3.9384    0.2456   -2.8501 H   0  0  0  0  0  0  0  0  0  0  0  0
    2.9017   -0.4640   -4.0864 H   0  0  0  0  0  0  0  0  0  0  0  0
    4.6254   -0.4915   -4.2922 H   0  0  0  0  0  0  0  0  0  0  0  0
    2.6078   -1.1741   -1.5175 H   0  0  0  0  0  0  0  0  0  0  0  0
    1.8322   -2.3345   -2.5707 H   0  0  0  0  0  0  0  0  0  0  0  0
    1.8922   -2.9310   -0.1982 H   0  0  0  0  0  0  0  0  0  0  0  0
    2.4942   -4.1985   -1.2011 H   0  0  0  0  0  0  0  0  0  0  0  0
    4.5018   -4.1841   -0.2936 H   0  0  0  0  0  0  0  0  0  0  0  0
    2.8127   -4.9999    2.7848 H   0  0  0  0  0  0  0  0  0  0  0  0
    3.0545   -5.4458    1.1126 H   0  0  0  0  0  0  0  0  0  0  0  0
    1.7811   -4.3426    1.5585 H   0  0  0  0  0  0  0  0  0  0  0  0
    2.3511   -1.7472    1.5568 H   0  0  0  0  0  0  0  0  0  0  0  0
    0.3700   -1.2138    3.1382 H   0  0  0  0  0  0  0  0  0  0  0  0
   -0.2758   -2.1555    5.6377 H   0  0  0  0  0  0  0  0  0  0  0  0
    3.4323   -3.6356    5.0201 H   0  0  0  0  0  0  0  0  0  0  0  0
    6.4306   -2.5912    3.1644 H   0  0  0  0  0  0  0  0  0  0  0  0
    4.7411   -3.8362    3.3728 H   0  0  0  0  0  0  0  0  0  0  0  0
  1  2  1  0
  1 32  1  0
  1 33  1  0
  1 34  1  0
  2 31  1  0
  2  3  1  0
  2 35  1  6
  3  4  1  0
  3 36  1  0
  3 37  1  0
  4  5  1  0
  5 30  1  0
  5  6  1  0
  5 38  1  1
  6  7  1  0
  7 18  1  0
  7  8  1  1
  7  9  1  0
  8 39  1  0
  9 14  1  0
  9 10  1  0
  9 40  1  1
 10 11  2  0
 10 41  1  0
 11 12  1  0
 11 42  1  0
 12 13  2  0
 12 14  1  0
 14 15  1  6
 14 16  1  0
 15 43  1  0
 15 44  1  0
 15 45  1  0
 16 17  1  0
 16 46  1  0
 16 47  1  0
 17 18  1  0
 17 48  1  0
 17 49  1  0
 18 19  1  0
 18 50  1  6
 19 31  1  0
 19 20  1  6
 19 21  1  0
 20 51  1  0
 20 52  1  0
 20 53  1  0
 21 22  1  0
 21 27  1  0
 21 54  1  6
 22 26  2  0
 22 23  1  0
 23 24  2  0
 23 55  1  0
 24 25  1  0
 24 56  1  0
 25 26  1  0
 26 57  1  0
 27 28  1  0
 28 29  2  0
 28 30  1  0
 30 31  1  0
 30 58  1  1
 31 59  1  1
M  END
>  <i_m_ct_stereo_status>  (80) 
1

>  <s_m_source_file>  (80) 
/var/tmp/pbs.5076255.sched01/tmpn440o9cr/0yczfkg0t.sdf

>  <i_m_source_file_index>  (80) 
32

>  <i_lp_mmshare_version>  (80) 
48012

>  <i_f3d_flags>  (80) 
0

>  <s_epik_input>  (80) 
W2NIXTFvW2NIXVtjSF1jMVtDQEhdMk9DKD1PKVtDQEhdKFtDQEhdKE8zKU9bQ0gyXVtDQEhdNFtDSDNdKVtDSF00W0NAXTIoW0NIM10pW0NASF01W0NIMl1bQ0gyXVtDQEBdKFtDSDNdKShbQ0BIXTZbQ0BdMzVbT0hdKUMoPU8pW0NIXT1bQ0hdNg==

>  <s_epik_cmdline>  (80) 
J2VwaWtfcHl0aG9uJywgJy1waHQnLCAnMi4wJywgJy1waCcsICc3LjAnLCAnLXRuJywgJzgnLCAnLW1hJywgJzIwMCcsICctaW1hZScsICc8aW5maWxlLm1hZT4nLCAnLW9tYWUnLCAnPG91dGZpbGUubWFlPic=

>  <r_lp_tautomer_probability>  (80) 
1

>  <r_epik_Ionization_Penalty>  (80) 
3.81543e-07

>  <r_epik_Ionization_Penalty_Charging>  (80) 
0

>  <r_epik_Ionization_Penalty_Neutral>  (80) 
3.81543e-07

>  <r_epik_State_Penalty>  (80) 
-0

>  <r_epik_Charging_Adjusted_Penalty>  (80) 
0

>  <i_epik_Tot_Q>  (80) 
0

>  <i_epik_Tot_abs_Q>  (80) 
0

>  <s_epik_Chemistry_Notes>  (80) 
This compound has an ester and may undergo hydrolysis at high or low pH. This compound contains an acetal/aminal-like group ( X-CH(R)-Y where X, Y are N, S, or O) that may be acid/base labile, releasing an aldehyde.

>  <s_lp_Force_Field>  (80) 
OPLS3e

>  <r_lp_Energy>  (80) 
56.6452

>  <b_lp_Chiralities_Consistent>  (80) 
1

>  <s_lp_Variant>  (80) 
25:0-2

>  <s_i_glide_gridfile>  (80) 
pfpi4k_grid

>  <i_i_glide_lignum>  (80) 
32

>  <i_i_glide_rotatable_bonds>  (80) 
2

>  <r_i_docking_score>  (80) 
-3.42862

>  <r_i_glide_ligand_efficiency>  (80) 
-0.110601

>  <r_i_glide_ligand_efficiency_sa>  (80) 
-0.347439

>  <r_i_glide_ligand_efficiency_ln>  (80) 
-0.773259

>  <r_i_glide_gscore>  (80) 
-3.42862

>  <r_i_glide_lipo>  (80) 
-0.908188

>  <r_i_glide_hbond>  (80) 
-0.213244

>  <r_i_glide_metal>  (80) 
-0

>  <r_i_glide_rewards>  (80) 
-1.4007

>  <r_i_glide_evdw>  (80) 
-14.9278

>  <r_i_glide_ecoul>  (80) 
-1.70218

>  <r_i_glide_erotb>  (80) 
0.108197

>  <r_i_glide_esite>  (80) 
-0.0129725

>  <r_i_glide_emodel>  (80) 
-27.0338

>  <r_i_glide_energy>  (80) 
-16.63

>  <r_i_glide_einternal>  (80) 
0.675866

>  <r_i_glide_intrahb_reward>  (80) 
-0.5

>  <i_i_glide_confnum>  (80) 
1

>  <i_i_glide_posenum>  (80) 
12

>  <r_i_glide_eff_state_penalty>  (80) 
0

>  <ligand_id>  (80) 
25

>  <original_smiles>  (80) 
CC1COC2OC3(O)C4C=CC(=O)C4(C)CCC3C3(C)C(c4ccoc4)OC(=O)C2C13

>  <smiles>  (80) 
[H]OC12OC3([H])OC([H])([H])C([H])(C([H])([H])[H])C4([H])C3([H])C(=O)OC([H])(c3c([H])oc([H])c3[H])C4(C([H])([H])[H])C1([H])C([H])([H])C([H])([H])C1(C([H])([H])[H])C(=O)C([H])=C([H])C21[H]

$$$$
25:1:1
     RDKit          3D

 59 64  0  0  1  0  0  0  0  0999 V2000
    4.5819   -3.4726   -3.0699 C   0  0  0  0  0  0  0  0  0  0  0  0
    4.1355   -2.8943   -1.7104 C   0  0  2  0  0  0  0  0  0  0  0  0
    4.4620   -1.3875   -1.6702 C   0  0  0  0  0  0  0  0  0  0  0  0
    5.8096   -1.1784   -1.2770 O   0  0  0  0  0  0  0  0  0  0  0  0
    6.0976   -1.6370    0.0059 C   0  0  1  0  0  0  0  0  0  0  0  0
    5.2406   -0.9796    0.9039 O   0  0  0  0  0  0  0  0  0  0  0  0
    4.5305   -1.5939    1.9457 C   0  0  1  0  0  0  0  0  0  0  0  0
    5.3959   -2.1554    2.9114 O   0  0  0  0  0  0  0  0  0  0  0  0
    3.9048   -0.3378    2.6312 C   0  0  1  0  0  0  0  0  0  0  0  0
    3.0818    0.5206    1.6918 C   0  0  0  0  0  0  0  0  0  0  0  0
    1.8716    0.8511    2.1344 C   0  0  0  0  0  0  0  0  0  0  0  0
    1.7022    0.2108    3.4351 C   0  0  0  0  0  0  0  0  0  0  0  0
    0.7582    0.3530    4.2041 O   0  0  0  0  0  0  0  0  0  0  0  0
    2.9362   -0.6415    3.8085 C   0  0  2  0  0  0  0  0  0  0  0  0
    3.5056   -0.1424    5.1455 C   0  0  0  0  0  0  0  0  0  0  0  0
    2.5982   -2.1434    3.9330 C   0  0  0  0  0  0  0  0  0  0  0  0
    2.3814   -2.8567    2.5963 C   0  0  0  0  0  0  0  0  0  0  0  0
    3.4097   -2.6040    1.4595 C   0  0  2  0  0  0  0  0  0  0  0  0
    3.8878   -3.9447    0.7549 C   0  0  2  0  0  0  0  0  0  0  0  0
    2.5817   -4.6551    0.2876 C   0  0  0  0  0  0  0  0  0  0  0  0
    4.7232   -4.9443    1.6665 C   0  0  1  0  0  0  0  0  0  0  0  0
    4.6317   -6.4371    1.3376 C   0  0  0  0  0  0  0  0  0  0  0  0
    4.7138   -7.5098    2.2774 C   0  0  0  0  0  0  0  0  0  0  0  0
    4.6746   -8.6835    1.5547 C   0  0  0  0  0  0  0  0  0  0  0  0
    4.6257   -8.4172    0.2363 O   0  0  0  0  0  0  0  0  0  0  0  0
    4.6124   -7.0643    0.1199 C   0  0  0  0  0  0  0  0  0  0  0  0
    6.0930   -4.6100    1.8787 O   0  0  0  0  0  0  0  0  0  0  0  0
    6.8457   -3.9460    0.9863 C   0  0  0  0  0  0  0  0  0  0  0  0
    8.0781   -3.9208    0.9903 O   0  0  0  0  0  0  0  0  0  0  0  0
    6.0875   -3.1651   -0.0825 C   0  0  1  0  0  0  0  0  0  0  0  0
    4.7316   -3.6744   -0.5117 C   0  0  2  0  0  0  0  0  0  0  0  0
    5.6622   -3.4454   -3.2129 H   0  0  0  0  0  0  0  0  0  0  0  0
    4.0904   -2.9571   -3.8977 H   0  0  0  0  0  0  0  0  0  0  0  0
    4.2822   -4.5136   -3.1551 H   0  0  0  0  0  0  0  0  0  0  0  0
    3.0560   -2.9865   -1.6967 H   0  0  0  0  0  0  0  0  0  0  0  0
    4.3159   -0.9539   -2.6546 H   0  0  0  0  0  0  0  0  0  0  0  0
    3.7817   -0.8631   -1.0035 H   0  0  0  0  0  0  0  0  0  0  0  0
    7.1075   -1.3192    0.2660 H   0  0  0  0  0  0  0  0  0  0  0  0
    4.8928   -2.3179    3.7048 H   0  0  0  0  0  0  0  0  0  0  0  0
    4.7174    0.2893    2.9857 H   0  0  0  0  0  0  0  0  0  0  0  0
    3.5177    0.8595    0.7686 H   0  0  0  0  0  0  0  0  0  0  0  0
    1.1688    1.5168    1.6376 H   0  0  0  0  0  0  0  0  0  0  0  0
    4.4549   -0.6278    5.3718 H   0  0  0  0  0  0  0  0  0  0  0  0
    2.8303   -0.3435    5.9810 H   0  0  0  0  0  0  0  0  0  0  0  0
    3.6883    0.9384    5.1337 H   0  0  0  0  0  0  0  0  0  0  0  0
    3.3150   -2.6573    4.5656 H   0  0  0  0  0  0  0  0  0  0  0  0
    1.6374   -2.2149    4.4503 H   0  0  0  0  0  0  0  0  0  0  0  0
    2.3367   -3.9170    2.8540 H   0  0  0  0  0  0  0  0  0  0  0  0
    1.3835   -2.6362    2.2147 H   0  0  0  0  0  0  0  0  0  0  0  0
    2.8555   -2.0530    0.7025 H   0  0  0  0  0  0  0  0  0  0  0  0
    2.7610   -5.3721   -0.4988 H   0  0  0  0  0  0  0  0  0  0  0  0
    1.8586   -3.9535   -0.1176 H   0  0  0  0  0  0  0  0  0  0  0  0
    2.1277   -5.1992    1.1132 H   0  0  0  0  0  0  0  0  0  0  0  0
    4.2455   -4.9233    2.6530 H   0  0  0  0  0  0  0  0  0  0  0  0
    4.8178   -7.4642    3.3516 H   0  0  0  0  0  0  0  0  0  0  0  0
    4.7088   -9.7307    1.7897 H   0  0  0  0  0  0  0  0  0  0  0  0
    4.5991   -6.7587   -0.9145 H   0  0  0  0  0  0  0  0  0  0  0  0
    6.7479   -3.3566   -0.9179 H   0  0  0  0  0  0  0  0  0  0  0  0
    4.9737   -4.6445   -0.9330 H   0  0  0  0  0  0  0  0  0  0  0  0
  1  2  1  0
  1 32  1  0
  1 33  1  0
  1 34  1  0
  2 31  1  0
  2  3  1  0
  2 35  1  6
  3  4  1  0
  3 36  1  0
  3 37  1  0
  4  5  1  0
  5 30  1  0
  5  6  1  0
  5 38  1  1
  6  7  1  0
  7 18  1  0
  7  8  1  1
  7  9  1  0
  8 39  1  0
  9 14  1  0
  9 10  1  0
  9 40  1  1
 10 11  2  0
 10 41  1  0
 11 12  1  0
 11 42  1  0
 12 13  2  0
 12 14  1  0
 14 15  1  1
 14 16  1  0
 15 43  1  0
 15 44  1  0
 15 45  1  0
 16 17  1  0
 16 46  1  0
 16 47  1  0
 17 18  1  0
 17 48  1  0
 17 49  1  0
 18 19  1  0
 18 50  1  6
 19 31  1  0
 19 20  1  6
 19 21  1  0
 20 51  1  0
 20 52  1  0
 20 53  1  0
 21 22  1  0
 21 27  1  0
 21 54  1  1
 22 26  2  0
 22 23  1  0
 23 24  2  0
 23 55  1  0
 24 25  1  0
 24 56  1  0
 25 26  1  0
 26 57  1  0
 27 28  1  0
 28 29  2  0
 28 30  1  0
 30 31  1  0
 30 58  1  6
 31 59  1  6
M  END
>  <i_m_ct_stereo_status>  (81) 
1

>  <s_m_source_file>  (81) 
/var/tmp/pbs.5076255.sched01/tmpn440o9cr/0yczfkg0t.sdf

>  <i_m_source_file_index>  (81) 
32

>  <i_lp_mmshare_version>  (81) 
48012

>  <i_f3d_flags>  (81) 
0

>  <s_epik_input>  (81) 
W2NIXTFvW2NIXVtjSF1jMVtDQEhdMk9DKD1PKVtDQEhdKFtDQEhdKE8zKU9bQ0gyXVtDQEhdNFtDSDNdKVtDSF00W0NAXTIoW0NIM10pW0NASF01W0NIMl1bQ0gyXVtDQEBdKFtDSDNdKShbQ0BIXTZbQ0BdMzVbT0hdKUMoPU8pW0NIXT1bQ0hdNg==

>  <s_epik_cmdline>  (81) 
J2VwaWtfcHl0aG9uJywgJy1waHQnLCAnMi4wJywgJy1waCcsICc3LjAnLCAnLXRuJywgJzgnLCAnLW1hJywgJzIwMCcsICctaW1hZScsICc8aW5maWxlLm1hZT4nLCAnLW9tYWUnLCAnPG91dGZpbGUubWFlPic=

>  <r_lp_tautomer_probability>  (81) 
1

>  <r_epik_Ionization_Penalty>  (81) 
3.81543e-07

>  <r_epik_Ionization_Penalty_Charging>  (81) 
0

>  <r_epik_Ionization_Penalty_Neutral>  (81) 
3.81543e-07

>  <r_epik_State_Penalty>  (81) 
-0

>  <r_epik_Charging_Adjusted_Penalty>  (81) 
0

>  <i_epik_Tot_Q>  (81) 
0

>  <i_epik_Tot_abs_Q>  (81) 
0

>  <s_epik_Chemistry_Notes>  (81) 
This compound has an ester and may undergo hydrolysis at high or low pH. This compound contains an acetal/aminal-like group ( X-CH(R)-Y where X, Y are N, S, or O) that may be acid/base labile, releasing an aldehyde.

>  <s_lp_Force_Field>  (81) 
OPLS3e

>  <r_lp_Energy>  (81) 
56.6452

>  <b_lp_Chiralities_Consistent>  (81) 
1

>  <s_lp_Variant>  (81) 
25:0-2

>  <s_i_glide_gridfile>  (81) 
pfpi4k_grid

>  <i_i_glide_lignum>  (81) 
32

>  <i_i_glide_rotatable_bonds>  (81) 
2

>  <r_i_docking_score>  (81) 
-3.29581

>  <r_i_glide_ligand_efficiency>  (81) 
-0.106316

>  <r_i_glide_ligand_efficiency_sa>  (81) 
-0.33398

>  <r_i_glide_ligand_efficiency_ln>  (81) 
-0.743306

>  <r_i_glide_gscore>  (81) 
-3.29581

>  <r_i_glide_lipo>  (81) 
-0.566302

>  <r_i_glide_hbond>  (81) 
-0.073484

>  <r_i_glide_metal>  (81) 
-0

>  <r_i_glide_rewards>  (81) 
-0.667347

>  <r_i_glide_evdw>  (81) 
-31.1812

>  <r_i_glide_ecoul>  (81) 
-3.51222

>  <r_i_glide_erotb>  (81) 
0.108197

>  <r_i_glide_esite>  (81) 
-0.0109797

>  <r_i_glide_emodel>  (81) 
-39.2051

>  <r_i_glide_energy>  (81) 
-34.6935

>  <r_i_glide_einternal>  (81) 
2.2947

>  <r_i_glide_intrahb_reward>  (81) 
-0

>  <i_i_glide_confnum>  (81) 
1

>  <i_i_glide_posenum>  (81) 
27

>  <r_i_glide_eff_state_penalty>  (81) 
0

>  <ligand_id>  (81) 
25

>  <original_smiles>  (81) 
CC1COC2OC3(O)C4C=CC(=O)C4(C)CCC3C3(C)C(c4ccoc4)OC(=O)C2C13

>  <smiles>  (81) 
[H]OC12OC3([H])OC([H])([H])C([H])(C([H])([H])[H])C4([H])C3([H])C(=O)OC([H])(c3c([H])oc([H])c3[H])C4(C([H])([H])[H])C1([H])C([H])([H])C([H])([H])C1(C([H])([H])[H])C(=O)C([H])=C([H])C21[H]

$$$$
25:1:2
     RDKit          3D

 59 64  0  0  1  0  0  0  0  0999 V2000
    4.5718   -3.4734   -3.0661 C   0  0  0  0  0  0  0  0  0  0  0  0
    4.1367   -2.8827   -1.7079 C   0  0  2  0  0  0  0  0  0  0  0  0
    4.4614   -1.3809   -1.6695 C   0  0  0  0  0  0  0  0  0  0  0  0
    5.8209   -1.1708   -1.2799 O   0  0  0  0  0  0  0  0  0  0  0  0
    6.1009   -1.6276    0.0002 C   0  0  1  0  0  0  0  0  0  0  0  0
    5.2453   -0.9747    0.9017 O   0  0  0  0  0  0  0  0  0  0  0  0
    4.5492   -1.5784    1.9588 C   0  0  1  0  0  0  0  0  0  0  0  0
    5.4114   -2.1458    2.9215 O   0  0  0  0  0  0  0  0  0  0  0  0
    3.9063   -0.3343    2.6389 C   0  0  1  0  0  0  0  0  0  0  0  0
    3.0841    0.5292    1.6985 C   0  0  0  0  0  0  0  0  0  0  0  0
    1.8769    0.8666    2.1474 C   0  0  0  0  0  0  0  0  0  0  0  0
    1.7087    0.2273    3.4467 C   0  0  0  0  0  0  0  0  0  0  0  0
    0.7603    0.3812    4.2125 O   0  0  0  0  0  0  0  0  0  0  0  0
    2.9367   -0.6336    3.8126 C   0  0  2  0  0  0  0  0  0  0  0  0
    3.5101   -0.1347    5.1555 C   0  0  0  0  0  0  0  0  0  0  0  0
    2.5829   -2.1294    3.9330 C   0  0  0  0  0  0  0  0  0  0  0  0
    2.3807   -2.8574    2.5991 C   0  0  0  0  0  0  0  0  0  0  0  0
    3.4309   -2.6051    1.4711 C   0  0  2  0  0  0  0  0  0  0  0  0
    3.8898   -3.9407    0.7574 C   0  0  2  0  0  0  0  0  0  0  0  0
    2.5935   -4.6571    0.2914 C   0  0  0  0  0  0  0  0  0  0  0  0
    4.7244   -4.9385    1.6674 C   0  0  1  0  0  0  0  0  0  0  0  0
    4.6424   -6.4301    1.3362 C   0  0  0  0  0  0  0  0  0  0  0  0
    4.7275   -7.5080    2.2673 C   0  0  0  0  0  0  0  0  0  0  0  0
    4.6844   -8.6712    1.5464 C   0  0  0  0  0  0  0  0  0  0  0  0
    4.6020   -8.4066    0.2277 O   0  0  0  0  0  0  0  0  0  0  0  0
    4.6037   -7.0564    0.1106 C   0  0  0  0  0  0  0  0  0  0  0  0
    6.0961   -4.6045    1.8834 O   0  0  0  0  0  0  0  0  0  0  0  0
    6.8507   -3.9328    0.9909 C   0  0  0  0  0  0  0  0  0  0  0  0
    8.0783   -3.8901    1.0317 O   0  0  0  0  0  0  0  0  0  0  0  0
    6.0987   -3.1645   -0.0875 C   0  0  1  0  0  0  0  0  0  0  0  0
    4.7391   -3.6705   -0.5075 C   0  0  2  0  0  0  0  0  0  0  0  0
    5.6523   -3.4495   -3.2100 H   0  0  0  0  0  0  0  0  0  0  0  0
    4.0838   -2.9577   -3.8943 H   0  0  0  0  0  0  0  0  0  0  0  0
    4.2691   -4.5129   -3.1482 H   0  0  0  0  0  0  0  0  0  0  0  0
    3.0543   -2.9766   -1.6867 H   0  0  0  0  0  0  0  0  0  0  0  0
    4.3175   -0.9480   -2.6566 H   0  0  0  0  0  0  0  0  0  0  0  0
    3.7810   -0.8526   -1.0078 H   0  0  0  0  0  0  0  0  0  0  0  0
    7.1128   -1.3030    0.2446 H   0  0  0  0  0  0  0  0  0  0  0  0
    5.8883   -1.4395    3.3477 H   0  0  0  0  0  0  0  0  0  0  0  0
    4.7186    0.3050    2.9907 H   0  0  0  0  0  0  0  0  0  0  0  0
    3.5132    0.8641    0.7740 H   0  0  0  0  0  0  0  0  0  0  0  0
    1.1690    1.5304    1.6562 H   0  0  0  0  0  0  0  0  0  0  0  0
    4.4566   -0.6294    5.3736 H   0  0  0  0  0  0  0  0  0  0  0  0
    2.8370   -0.3413    5.9894 H   0  0  0  0  0  0  0  0  0  0  0  0
    3.6973    0.9414    5.1475 H   0  0  0  0  0  0  0  0  0  0  0  0
    3.3376   -2.6415    4.5386 H   0  0  0  0  0  0  0  0  0  0  0  0
    1.6444   -2.2158    4.4780 H   0  0  0  0  0  0  0  0  0  0  0  0
    2.3462   -3.9100    2.8644 H   0  0  0  0  0  0  0  0  0  0  0  0
    1.3845   -2.6491    2.2048 H   0  0  0  0  0  0  0  0  0  0  0  0
    2.8739   -2.0487    0.7133 H   0  0  0  0  0  0  0  0  0  0  0  0
    2.7669   -5.3794   -0.4968 H   0  0  0  0  0  0  0  0  0  0  0  0
    1.8601   -3.9649   -0.1228 H   0  0  0  0  0  0  0  0  0  0  0  0
    2.1272   -5.2066    1.1110 H   0  0  0  0  0  0  0  0  0  0  0  0
    4.2580   -4.9111    2.6547 H   0  0  0  0  0  0  0  0  0  0  0  0
    4.8284   -7.4552    3.3439 H   0  0  0  0  0  0  0  0  0  0  0  0
    4.7145   -9.7241    1.7805 H   0  0  0  0  0  0  0  0  0  0  0  0
    4.5936   -6.7399   -0.9173 H   0  0  0  0  0  0  0  0  0  0  0  0
    6.7567   -3.3573   -0.9300 H   0  0  0  0  0  0  0  0  0  0  0  0
    4.9722   -4.6411   -0.9317 H   0  0  0  0  0  0  0  0  0  0  0  0
  1  2  1  0
  1 32  1  0
  1 33  1  0
  1 34  1  0
  2 31  1  0
  2  3  1  0
  2 35  1  1
  3  4  1  0
  3 36  1  0
  3 37  1  0
  4  5  1  0
  5 30  1  0
  5  6  1  0
  5 38  1  1
  6  7  1  0
  7 18  1  0
  7  8  1  1
  7  9  1  0
  8 39  1  0
  9 14  1  0
  9 10  1  0
  9 40  1  1
 10 11  2  0
 10 41  1  0
 11 12  1  0
 11 42  1  0
 12 13  2  0
 12 14  1  0
 14 15  1  1
 14 16  1  0
 15 43  1  0
 15 44  1  0
 15 45  1  0
 16 17  1  0
 16 46  1  0
 16 47  1  0
 17 18  1  0
 17 48  1  0
 17 49  1  0
 18 19  1  0
 18 50  1  6
 19 31  1  0
 19 20  1  6
 19 21  1  0
 20 51  1  0
 20 52  1  0
 20 53  1  0
 21 22  1  0
 21 27  1  0
 21 54  1  1
 22 26  2  0
 22 23  1  0
 23 24  2  0
 23 55  1  0
 24 25  1  0
 24 56  1  0
 25 26  1  0
 26 57  1  0
 27 28  1  0
 28 29  2  0
 28 30  1  0
 30 31  1  0
 30 58  1  6
 31 59  1  6
M  END
>  <i_m_ct_stereo_status>  (82) 
1

>  <s_m_source_file>  (82) 
/var/tmp/pbs.5076255.sched01/tmpn440o9cr/0yczfkg0t.sdf

>  <i_m_source_file_index>  (82) 
32

>  <i_lp_mmshare_version>  (82) 
48012

>  <i_f3d_flags>  (82) 
0

>  <s_epik_input>  (82) 
W2NIXTFvW2NIXVtjSF1jMVtDQEhdMk9DKD1PKVtDQEhdKFtDQEhdKE8zKU9bQ0gyXVtDQEhdNFtDSDNdKVtDSF00W0NAXTIoW0NIM10pW0NASF01W0NIMl1bQ0gyXVtDQEBdKFtDSDNdKShbQ0BIXTZbQ0BdMzVbT0hdKUMoPU8pW0NIXT1bQ0hdNg==

>  <s_epik_cmdline>  (82) 
J2VwaWtfcHl0aG9uJywgJy1waHQnLCAnMi4wJywgJy1waCcsICc3LjAnLCAnLXRuJywgJzgnLCAnLW1hJywgJzIwMCcsICctaW1hZScsICc8aW5maWxlLm1hZT4nLCAnLW9tYWUnLCAnPG91dGZpbGUubWFlPic=

>  <r_lp_tautomer_probability>  (82) 
1

>  <r_epik_Ionization_Penalty>  (82) 
3.81543e-07

>  <r_epik_Ionization_Penalty_Charging>  (82) 
0

>  <r_epik_Ionization_Penalty_Neutral>  (82) 
3.81543e-07

>  <r_epik_State_Penalty>  (82) 
-0

>  <r_epik_Charging_Adjusted_Penalty>  (82) 
0

>  <i_epik_Tot_Q>  (82) 
0

>  <i_epik_Tot_abs_Q>  (82) 
0

>  <s_epik_Chemistry_Notes>  (82) 
This compound has an ester and may undergo hydrolysis at high or low pH. This compound contains an acetal/aminal-like group ( X-CH(R)-Y where X, Y are N, S, or O) that may be acid/base labile, releasing an aldehyde.

>  <s_lp_Force_Field>  (82) 
OPLS3e

>  <r_lp_Energy>  (82) 
56.6452

>  <b_lp_Chiralities_Consistent>  (82) 
1

>  <s_lp_Variant>  (82) 
25:0-2

>  <s_i_glide_gridfile>  (82) 
pfpi4k_grid

>  <i_i_glide_lignum>  (82) 
32

>  <i_i_glide_rotatable_bonds>  (82) 
2

>  <r_i_docking_score>  (82) 
-3.25067

>  <r_i_glide_ligand_efficiency>  (82) 
-0.10486

>  <r_i_glide_ligand_efficiency_sa>  (82) 
-0.329406

>  <r_i_glide_ligand_efficiency_ln>  (82) 
-0.733126

>  <r_i_glide_gscore>  (82) 
-3.25067

>  <r_i_glide_lipo>  (82) 
-0.566741

>  <r_i_glide_hbond>  (82) 
-0.0757798

>  <r_i_glide_metal>  (82) 
-0

>  <r_i_glide_rewards>  (82) 
-0.669308

>  <r_i_glide_evdw>  (82) 
-30.8543

>  <r_i_glide_ecoul>  (82) 
-3.28556

>  <r_i_glide_erotb>  (82) 
0.108197

>  <r_i_glide_esite>  (82) 
-0.0114885

>  <r_i_glide_emodel>  (82) 
-39.7361

>  <r_i_glide_energy>  (82) 
-34.1399

>  <r_i_glide_einternal>  (82) 
0.812014

>  <r_i_glide_intrahb_reward>  (82) 
-0

>  <i_i_glide_confnum>  (82) 
1

>  <i_i_glide_posenum>  (82) 
1

>  <r_i_glide_eff_state_penalty>  (82) 
0

>  <ligand_id>  (82) 
25

>  <original_smiles>  (82) 
CC1COC2OC3(O)C4C=CC(=O)C4(C)CCC3C3(C)C(c4ccoc4)OC(=O)C2C13

>  <smiles>  (82) 
[H]OC12OC3([H])OC([H])([H])C([H])(C([H])([H])[H])C4([H])C3([H])C(=O)OC([H])(c3c([H])oc([H])c3[H])C4(C([H])([H])[H])C1([H])C([H])([H])C([H])([H])C1(C([H])([H])[H])C(=O)C([H])=C([H])C21[H]

$$$$
26:0:0
     RDKit          3D

 56 60  0  0  1  0  0  0  0  0999 V2000
    4.5350   -0.9505   -2.8148 C   0  0  0  0  0  0  0  0  0  0  0  0
    4.4539   -2.3777   -2.2249 C   0  0  0  0  0  0  0  0  0  0  0  0
    3.5539   -3.1322   -3.2352 C   0  0  0  0  0  0  0  0  0  0  0  0
    5.8283   -3.0728   -2.2329 C   0  0  0  0  0  0  0  0  0  0  0  0
    6.7685   -2.5287   -1.1621 C   0  0  0  0  0  0  0  0  0  0  0  0
    6.1727   -2.5265    0.2544 C   0  0  0  0  0  0  0  0  0  0  0  0
    4.7874   -1.8055    0.3779 C   0  0  1  0  0  0  0  0  0  0  0  0
    4.9772   -0.2781    0.1784 C   0  0  0  0  0  0  0  0  0  0  0  0
    3.8687   -2.4123   -0.7541 C   0  0  2  0  0  0  0  0  0  0  0  0
    3.4555   -3.8513   -0.3424 C   0  0  0  0  0  0  0  0  0  0  0  0
    2.6675   -3.8844    0.9599 C   0  0  0  0  0  0  0  0  0  0  0  0
    3.3689   -3.2442    2.1777 C   0  0  2  0  0  0  0  0  0  0  0  0
    4.3939   -4.1897    2.8317 C   0  0  2  0  0  0  0  0  0  0  0  0
    3.7553   -5.3881    3.1334 O   0  0  0  0  0  0  0  0  0  0  0  0
    2.7670   -5.2345    4.0909 C   0  0  0  0  0  0  0  0  0  0  0  0
    1.8071   -4.2726    3.7380 O   0  0  0  0  0  0  0  0  0  0  0  0
    2.3198   -3.0253    3.3425 C   0  0  2  0  0  0  0  0  0  0  0  0
    1.2580   -2.1952    2.8917 O   0  0  0  0  0  0  0  0  0  0  0  0
    3.0162   -2.2798    4.5256 C   0  0  1  0  0  0  0  0  0  0  0  0
    2.6692   -2.7264    5.8317 O   0  0  0  0  0  0  0  0  0  0  0  0
    4.5475   -2.2728    4.2761 C   0  0  1  0  0  0  0  0  0  0  0  0
    5.1957   -1.7716    5.4247 O   0  0  0  0  0  0  0  0  0  0  0  0
    4.9869   -3.5806    3.9679 O   0  0  0  0  0  0  0  0  0  0  0  0
    4.8165   -1.3354    3.0562 C   0  0  1  0  0  0  0  0  0  0  0  0
    6.1859   -1.0230    2.8755 O   0  0  0  0  0  0  0  0  0  0  0  0
    4.0774   -1.9097    1.7981 C   0  0  1  0  0  0  0  0  0  0  0  0
    4.6285   -0.9593   -3.9013 H   0  0  0  0  0  0  0  0  0  0  0  0
    5.3994   -0.4067   -2.4614 H   0  0  0  0  0  0  0  0  0  0  0  0
    3.6623   -0.3452   -2.5794 H   0  0  0  0  0  0  0  0  0  0  0  0
    3.6318   -4.2051   -3.0972 H   0  0  0  0  0  0  0  0  0  0  0  0
    3.8583   -2.9738   -4.2756 H   0  0  0  0  0  0  0  0  0  0  0  0
    2.5025   -2.8379   -3.1465 H   0  0  0  0  0  0  0  0  0  0  0  0
    5.7081   -4.1400   -2.0523 H   0  0  0  0  0  0  0  0  0  0  0  0
    6.2962   -2.9938   -3.2158 H   0  0  0  0  0  0  0  0  0  0  0  0
    7.7019   -3.0931   -1.1704 H   0  0  0  0  0  0  0  0  0  0  0  0
    7.0216   -1.5181   -1.4272 H   0  0  0  0  0  0  0  0  0  0  0  0
    6.1044   -3.5641    0.5506 H   0  0  0  0  0  0  0  0  0  0  0  0
    6.9326   -2.0796    0.8904 H   0  0  0  0  0  0  0  0  0  0  0  0
    4.1044    0.1268   -0.3069 H   0  0  0  0  0  0  0  0  0  0  0  0
    5.8502   -0.0776   -0.4259 H   0  0  0  0  0  0  0  0  0  0  0  0
    5.1211    0.2940    1.0859 H   0  0  0  0  0  0  0  0  0  0  0  0
    2.9525   -1.8241   -0.7937 H   0  0  0  0  0  0  0  0  0  0  0  0
    2.7884   -4.2818   -1.0912 H   0  0  0  0  0  0  0  0  0  0  0  0
    4.3108   -4.5224   -0.2688 H   0  0  0  0  0  0  0  0  0  0  0  0
    1.8271   -3.2546    0.7258 H   0  0  0  0  0  0  0  0  0  0  0  0
    2.2972   -4.8898    1.1708 H   0  0  0  0  0  0  0  0  0  0  0  0
    5.1871   -4.4554    2.1444 H   0  0  0  0  0  0  0  0  0  0  0  0
    2.2550   -6.1903    4.1998 H   0  0  0  0  0  0  0  0  0  0  0  0
    3.2244   -5.0438    5.0580 H   0  0  0  0  0  0  0  0  0  0  0  0
    0.9834   -2.4951    2.0476 H   0  0  0  0  0  0  0  0  0  0  0  0
    2.6936   -1.2389    4.5079 H   0  0  0  0  0  0  0  0  0  0  0  0
    2.8773   -3.6391    5.9103 H   0  0  0  0  0  0  0  0  0  0  0  0
    4.8801   -2.2759    6.1583 H   0  0  0  0  0  0  0  0  0  0  0  0
    4.3643   -0.3660    3.2954 H   0  0  0  0  0  0  0  0  0  0  0  0
    6.2851   -0.4367    2.1484 H   0  0  0  0  0  0  0  0  0  0  0  0
    3.2357   -1.2205    1.6692 H   0  0  0  0  0  0  0  0  0  0  0  0
  1  2  1  0
  1 27  1  0
  1 28  1  0
  1 29  1  0
  2  9  1  0
  2  3  1  0
  2  4  1  0
  3 30  1  0
  3 31  1  0
  3 32  1  0
  4  5  1  0
  4 33  1  0
  4 34  1  0
  5  6  1  0
  5 35  1  0
  5 36  1  0
  6  7  1  0
  6 37  1  0
  6 38  1  0
  7 26  1  0
  7  8  1  6
  7  9  1  0
  8 39  1  0
  8 40  1  0
  8 41  1  0
  9 10  1  0
  9 42  1  6
 10 11  1  0
 10 43  1  0
 10 44  1  0
 12 11  1  6
 11 45  1  0
 11 46  1  0
 12 17  1  0
 12 26  1  0
 12 13  1  0
 13 23  1  0
 13 14  1  0
 13 47  1  6
 14 15  1  0
 15 16  1  0
 15 48  1  0
 15 49  1  0
 16 17  1  0
 17 18  1  6
 17 19  1  0
 18 50  1  0
 19 20  1  0
 19 21  1  0
 19 51  1  1
 20 52  1  0
 21 22  1  1
 21 23  1  0
 21 24  1  0
 22 53  1  0
 24 25  1  0
 24 26  1  0
 24 54  1  1
 25 55  1  0
 26 56  1  6
M  END
>  <i_m_ct_stereo_status>  (83) 
1

>  <s_m_source_file>  (83) 
/var/tmp/pbs.5076255.sched01/tmpn440o9cr/0yczfkg0t.sdf

>  <i_m_source_file_index>  (83) 
33

>  <i_lp_mmshare_version>  (83) 
48012

>  <i_f3d_flags>  (83) 
0

>  <s_epik_input>  (83) 
W0NIMl0xW0NIMl1bQ0gyXUMoW0NIM10pKFtDSDNdKVtDQEBIXShbQ0gyXVtDSDJdMilbQ0BAXTEoW0NIM10pW0NAQEhdM1tDQEhdKFtPSF0pW0NAQF0oTzQpKFtPSF0pW0NASF0oW09IXSlbQ0BdNShbT0hdKU9bQ0gyXU9bQ0BIXTRbQ0BdMjM1

>  <s_epik_cmdline>  (83) 
J2VwaWtfcHl0aG9uJywgJy1waHQnLCAnMi4wJywgJy1waCcsICc3LjAnLCAnLXRuJywgJzgnLCAnLW1hJywgJzIwMCcsICctaW1hZScsICc8aW5maWxlLm1hZT4nLCAnLW9tYWUnLCAnPG91dGZpbGUubWFlPic=

>  <r_lp_tautomer_probability>  (83) 
1

>  <r_epik_Ionization_Penalty>  (83) 
1.33965e-05

>  <r_epik_Ionization_Penalty_Charging>  (83) 
0

>  <r_epik_Ionization_Penalty_Neutral>  (83) 
1.33965e-05

>  <r_epik_State_Penalty>  (83) 
-0

>  <r_epik_Charging_Adjusted_Penalty>  (83) 
0

>  <i_epik_Tot_Q>  (83) 
0

>  <i_epik_Tot_abs_Q>  (83) 
0

>  <s_epik_Chemistry_Notes>  (83) 
This compound contains an acetal/aminal-like group ( X-CH(R)-Y where X, Y are N, S, or O) that may be acid/base labile, releasing an aldehyde.

>  <s_lp_Force_Field>  (83) 
OPLS3e

>  <r_lp_Energy>  (83) 
90.1071

>  <b_lp_Chiralities_Consistent>  (83) 
1

>  <s_lp_Variant>  (83) 
26:0-1

>  <s_i_glide_gridfile>  (83) 
pfpi4k_grid

>  <i_i_glide_lignum>  (83) 
33

>  <i_i_glide_rotatable_bonds>  (83) 
4

>  <r_i_docking_score>  (83) 
-2.80121

>  <r_i_glide_ligand_efficiency>  (83) 
-0.107739

>  <r_i_glide_ligand_efficiency_sa>  (83) 
-0.319176

>  <r_i_glide_ligand_efficiency_ln>  (83) 
-0.657856

>  <r_i_glide_gscore>  (83) 
-2.80121

>  <r_i_glide_lipo>  (83) 
-0.548316

>  <r_i_glide_hbond>  (83) 
0

>  <r_i_glide_metal>  (83) 
-0

>  <r_i_glide_rewards>  (83) 
-0.923944

>  <r_i_glide_evdw>  (83) 
-18.5117

>  <r_i_glide_ecoul>  (83) 
-2.68913

>  <r_i_glide_erotb>  (83) 
0

>  <r_i_glide_esite>  (83) 
0

>  <r_i_glide_emodel>  (83) 
-24.6934

>  <r_i_glide_energy>  (83) 
-21.2008

>  <r_i_glide_einternal>  (83) 
0.484141

>  <r_i_glide_intrahb_reward>  (83) 
-0

>  <i_i_glide_confnum>  (83) 
2

>  <i_i_glide_posenum>  (83) 
1

>  <r_i_glide_eff_state_penalty>  (83) 
0

>  <ligand_id>  (83) 
26

>  <original_smiles>  (83) 
CC1(C)CCCC2(C)C1CCC13C4OCOC1(O)C(O)C(O)(O4)C(O)C23

>  <smiles>  (83) 
[H]OC1([H])C2(O[H])OC3([H])OC([H])([H])OC1(O[H])C31C([H])([H])C([H])([H])C3([H])C(C([H])([H])[H])(C([H])([H])[H])C([H])([H])C([H])([H])C([H])([H])C3(C([H])([H])[H])C1([H])C2([H])O[H]

$$$$
26:0:1
     RDKit          3D

 56 60  0  0  1  0  0  0  0  0999 V2000
    4.6093   -1.0579   -2.0108 C   0  0  0  0  0  0  0  0  0  0  0  0
    4.8183   -2.4579   -1.3851 C   0  0  0  0  0  0  0  0  0  0  0  0
    4.3104   -3.4328   -2.4751 C   0  0  0  0  0  0  0  0  0  0  0  0
    6.3203   -2.7357   -1.1702 C   0  0  0  0  0  0  0  0  0  0  0  0
    6.9125   -1.9408    0.0007 C   0  0  0  0  0  0  0  0  0  0  0  0
    6.1253   -2.1176    1.3052 C   0  0  0  0  0  0  0  0  0  0  0  0
    4.5952   -1.8070    1.2087 C   0  0  1  0  0  0  0  0  0  0  0  0
    4.3831   -0.2833    0.9801 C   0  0  0  0  0  0  0  0  0  0  0  0
    4.0408   -2.6476   -0.0145 C   0  0  2  0  0  0  0  0  0  0  0  0
    3.9637   -4.1490    0.3901 C   0  0  0  0  0  0  0  0  0  0  0  0
    3.0339   -4.4163    1.5687 C   0  0  0  0  0  0  0  0  0  0  0  0
    3.3816   -3.6090    2.8479 C   0  0  2  0  0  0  0  0  0  0  0  0
    4.5286   -4.2530    3.6601 C   0  0  2  0  0  0  0  0  0  0  0  0
    4.2047   -5.5854    3.9096 O   0  0  0  0  0  0  0  0  0  0  0  0
    3.0848   -5.7164    4.7191 C   0  0  0  0  0  0  0  0  0  0  0  0
    1.9639   -5.0320    4.2284 O   0  0  0  0  0  0  0  0  0  0  0  0
    2.1757   -3.6851    3.8655 C   0  0  2  0  0  0  0  0  0  0  0  0
    1.0104   -3.1544    3.2819 O   0  0  0  0  0  0  0  0  0  0  0  0
    2.4766   -2.7971    5.1116 C   0  0  1  0  0  0  0  0  0  0  0  0
    2.0699   -3.3260    6.3630 O   0  0  0  0  0  0  0  0  0  0  0  0
    3.9629   -2.3866    5.0672 C   0  0  1  0  0  0  0  0  0  0  0  0
    4.3026   -1.7341    6.2692 O   0  0  0  0  0  0  0  0  0  0  0  0
    4.7681   -3.5271    4.8537 O   0  0  0  0  0  0  0  0  0  0  0  0
    4.1531   -1.4092    3.8770 C   0  0  1  0  0  0  0  0  0  0  0  0
    5.4051   -0.7665    3.9415 O   0  0  0  0  0  0  0  0  0  0  0  0
    3.7684   -2.1292    2.5354 C   0  0  1  0  0  0  0  0  0  0  0  0
    4.8522   -1.0435   -3.0754 H   0  0  0  0  0  0  0  0  0  0  0  0
    5.2488   -0.2977   -1.5717 H   0  0  0  0  0  0  0  0  0  0  0  0
    3.5723   -0.7248   -1.9161 H   0  0  0  0  0  0  0  0  0  0  0  0
    4.6234   -4.4570   -2.2853 H   0  0  0  0  0  0  0  0  0  0  0  0
    4.7110   -3.1864   -3.4604 H   0  0  0  0  0  0  0  0  0  0  0  0
    3.2219   -3.4101   -2.5463 H   0  0  0  0  0  0  0  0  0  0  0  0
    6.4756   -3.7955   -0.9748 H   0  0  0  0  0  0  0  0  0  0  0  0
    6.8772   -2.5265   -2.0834 H   0  0  0  0  0  0  0  0  0  0  0  0
    7.9426   -2.2608    0.1579 H   0  0  0  0  0  0  0  0  0  0  0  0
    6.9643   -0.8857   -0.2412 H   0  0  0  0  0  0  0  0  0  0  0  0
    6.2974   -3.1362    1.6296 H   0  0  0  0  0  0  0  0  0  0  0  0
    6.6119   -1.4853    2.0398 H   0  0  0  0  0  0  0  0  0  0  0  0
    3.4780   -0.0898    0.4098 H   0  0  0  0  0  0  0  0  0  0  0  0
    5.2200    0.1870    0.4787 H   0  0  0  0  0  0  0  0  0  0  0  0
    4.2721    0.2808    1.9023 H   0  0  0  0  0  0  0  0  0  0  0  0
    3.0126   -2.3215   -0.1981 H   0  0  0  0  0  0  0  0  0  0  0  0
    3.5716   -4.7514   -0.4267 H   0  0  0  0  0  0  0  0  0  0  0  0
    4.9488   -4.5541    0.6157 H   0  0  0  0  0  0  0  0  0  0  0  0
    2.0432   -4.1284    1.2232 H   0  0  0  0  0  0  0  0  0  0  0  0
    2.9792   -5.4883    1.7724 H   0  0  0  0  0  0  0  0  0  0  0  0
    5.4569   -4.2849    3.0994 H   0  0  0  0  0  0  0  0  0  0  0  0
    2.8298   -6.7783    4.7801 H   0  0  0  0  0  0  0  0  0  0  0  0
    3.3392   -5.4093    5.7326 H   0  0  0  0  0  0  0  0  0  0  0  0
    0.9693   -3.4602    2.3856 H   0  0  0  0  0  0  0  0  0  0  0  0
    1.9037   -1.8771    5.0077 H   0  0  0  0  0  0  0  0  0  0  0  0
    2.4884   -4.1676    6.4735 H   0  0  0  0  0  0  0  0  0  0  0  0
    4.0144   -2.2893    6.9831 H   0  0  0  0  0  0  0  0  0  0  0  0
    3.4393   -0.5974    4.0222 H   0  0  0  0  0  0  0  0  0  0  0  0
    5.4646   -0.3626    4.7951 H   0  0  0  0  0  0  0  0  0  0  0  0
    2.8026   -1.6827    2.2918 H   0  0  0  0  0  0  0  0  0  0  0  0
  1  2  1  0
  1 27  1  0
  1 28  1  0
  1 29  1  0
  2  9  1  0
  2  3  1  0
  2  4  1  0
  3 30  1  0
  3 31  1  0
  3 32  1  0
  4  5  1  0
  4 33  1  0
  4 34  1  0
  5  6  1  0
  5 35  1  0
  5 36  1  0
  6  7  1  0
  6 37  1  0
  6 38  1  0
  7 26  1  0
  7  8  1  6
  7  9  1  0
  8 39  1  0
  8 40  1  0
  8 41  1  0
  9 10  1  0
  9 42  1  6
 10 11  1  0
 10 43  1  0
 10 44  1  0
 12 11  1  6
 11 45  1  0
 11 46  1  0
 12 17  1  0
 12 26  1  0
 12 13  1  0
 13 23  1  0
 13 14  1  0
 13 47  1  6
 14 15  1  0
 15 16  1  0
 15 48  1  0
 15 49  1  0
 16 17  1  0
 17 18  1  6
 17 19  1  0
 18 50  1  0
 19 20  1  0
 19 21  1  0
 19 51  1  6
 20 52  1  0
 21 22  1  1
 21 23  1  0
 21 24  1  0
 22 53  1  0
 24 25  1  0
 24 26  1  0
 24 54  1  1
 25 55  1  0
 26 56  1  6
M  END
>  <i_m_ct_stereo_status>  (84) 
1

>  <s_m_source_file>  (84) 
/var/tmp/pbs.5076255.sched01/tmpn440o9cr/0yczfkg0t.sdf

>  <i_m_source_file_index>  (84) 
33

>  <i_lp_mmshare_version>  (84) 
48012

>  <i_f3d_flags>  (84) 
0

>  <s_epik_input>  (84) 
W0NIMl0xW0NIMl1bQ0gyXUMoW0NIM10pKFtDSDNdKVtDQEBIXShbQ0gyXVtDSDJdMilbQ0BAXTEoW0NIM10pW0NAQEhdM1tDQEhdKFtPSF0pW0NAQF0oTzQpKFtPSF0pW0NASF0oW09IXSlbQ0BdNShbT0hdKU9bQ0gyXU9bQ0BIXTRbQ0BdMjM1

>  <s_epik_cmdline>  (84) 
J2VwaWtfcHl0aG9uJywgJy1waHQnLCAnMi4wJywgJy1waCcsICc3LjAnLCAnLXRuJywgJzgnLCAnLW1hJywgJzIwMCcsICctaW1hZScsICc8aW5maWxlLm1hZT4nLCAnLW9tYWUnLCAnPG91dGZpbGUubWFlPic=

>  <r_lp_tautomer_probability>  (84) 
1

>  <r_epik_Ionization_Penalty>  (84) 
1.33965e-05

>  <r_epik_Ionization_Penalty_Charging>  (84) 
0

>  <r_epik_Ionization_Penalty_Neutral>  (84) 
1.33965e-05

>  <r_epik_State_Penalty>  (84) 
-0

>  <r_epik_Charging_Adjusted_Penalty>  (84) 
0

>  <i_epik_Tot_Q>  (84) 
0

>  <i_epik_Tot_abs_Q>  (84) 
0

>  <s_epik_Chemistry_Notes>  (84) 
This compound contains an acetal/aminal-like group ( X-CH(R)-Y where X, Y are N, S, or O) that may be acid/base labile, releasing an aldehyde.

>  <s_lp_Force_Field>  (84) 
OPLS3e

>  <r_lp_Energy>  (84) 
90.1071

>  <b_lp_Chiralities_Consistent>  (84) 
1

>  <s_lp_Variant>  (84) 
26:0-1

>  <s_i_glide_gridfile>  (84) 
pfpi4k_grid

>  <i_i_glide_lignum>  (84) 
33

>  <i_i_glide_rotatable_bonds>  (84) 
4

>  <r_i_docking_score>  (84) 
-2.76896

>  <r_i_glide_ligand_efficiency>  (84) 
-0.106499

>  <r_i_glide_ligand_efficiency_sa>  (84) 
-0.315502

>  <r_i_glide_ligand_efficiency_ln>  (84) 
-0.650282

>  <r_i_glide_gscore>  (84) 
-2.76896

>  <r_i_glide_lipo>  (84) 
-0.30808

>  <r_i_glide_hbond>  (84) 
0

>  <r_i_glide_metal>  (84) 
-0

>  <r_i_glide_rewards>  (84) 
-0.892525

>  <r_i_glide_evdw>  (84) 
-23.623

>  <r_i_glide_ecoul>  (84) 
-2.58137

>  <r_i_glide_erotb>  (84) 
0

>  <r_i_glide_esite>  (84) 
0

>  <r_i_glide_emodel>  (84) 
-29.7829

>  <r_i_glide_energy>  (84) 
-26.2044

>  <r_i_glide_einternal>  (84) 
0.660021

>  <r_i_glide_intrahb_reward>  (84) 
-0

>  <i_i_glide_confnum>  (84) 
2

>  <i_i_glide_posenum>  (84) 
4

>  <r_i_glide_eff_state_penalty>  (84) 
0

>  <ligand_id>  (84) 
26

>  <original_smiles>  (84) 
CC1(C)CCCC2(C)C1CCC13C4OCOC1(O)C(O)C(O)(O4)C(O)C23

>  <smiles>  (84) 
[H]OC1([H])C2(O[H])OC3([H])OC([H])([H])OC1(O[H])C31C([H])([H])C([H])([H])C3([H])C(C([H])([H])[H])(C([H])([H])[H])C([H])([H])C([H])([H])C([H])([H])C3(C([H])([H])[H])C1([H])C2([H])O[H]

$$$$
26:0:2
     RDKit          3D

 56 60  0  0  1  0  0  0  0  0999 V2000
    4.5991   -1.0576   -1.9757 C   0  0  0  0  0  0  0  0  0  0  0  0
    4.8141   -2.4553   -1.3424 C   0  0  0  0  0  0  0  0  0  0  0  0
    4.3135   -3.4423   -2.4271 C   0  0  0  0  0  0  0  0  0  0  0  0
    6.3200   -2.7195   -1.1242 C   0  0  0  0  0  0  0  0  0  0  0  0
    6.9044   -1.9114    0.0392 C   0  0  0  0  0  0  0  0  0  0  0  0
    6.1214   -2.0908    1.3429 C   0  0  0  0  0  0  0  0  0  0  0  0
    4.5881   -1.7924    1.2471 C   0  0  1  0  0  0  0  0  0  0  0  0
    4.3576   -0.2736    1.0062 C   0  0  0  0  0  0  0  0  0  0  0  0
    4.0385   -2.6447    0.0309 C   0  0  2  0  0  0  0  0  0  0  0  0
    3.9760   -4.1474    0.4419 C   0  0  0  0  0  0  0  0  0  0  0  0
    3.0478   -4.4168    1.6208 C   0  0  0  0  0  0  0  0  0  0  0  0
    3.3896   -3.6039    2.8912 C   0  0  2  0  0  0  0  0  0  0  0  0
    4.5393   -4.2317    3.7132 C   0  0  2  0  0  0  0  0  0  0  0  0
    4.2296   -5.5638    3.9788 O   0  0  0  0  0  0  0  0  0  0  0  0
    3.1137   -5.6934    4.7874 C   0  0  0  0  0  0  0  0  0  0  0  0
    1.9878   -5.0348    4.2781 O   0  0  0  0  0  0  0  0  0  0  0  0
    2.1829   -3.6902    3.8986 C   0  0  2  0  0  0  0  0  0  0  0  0
    1.0147   -3.2053    3.2848 O   0  0  0  0  0  0  0  0  0  0  0  0
    2.4560   -2.7834    5.1362 C   0  0  1  0  0  0  0  0  0  0  0  0
    2.0164   -3.3162    6.3772 O   0  0  0  0  0  0  0  0  0  0  0  0
    3.9478   -2.3598    5.1102 C   0  0  1  0  0  0  0  0  0  0  0  0
    4.2761   -1.6981    6.3145 O   0  0  0  0  0  0  0  0  0  0  0  0
    4.7734   -3.4839    4.8959 O   0  0  0  0  0  0  0  0  0  0  0  0
    4.1332   -1.3838    3.9166 C   0  0  1  0  0  0  0  0  0  0  0  0
    5.3892   -0.7494    3.9685 O   0  0  0  0  0  0  0  0  0  0  0  0
    3.7607   -2.1153    2.5752 C   0  0  1  0  0  0  0  0  0  0  0  0
    4.8374   -1.0469   -3.0401 H   0  0  0  0  0  0  0  0  0  0  0  0
    5.2381   -0.2896   -1.5472 H   0  0  0  0  0  0  0  0  0  0  0  0
    3.5625   -0.7288   -1.8810 H   0  0  0  0  0  0  0  0  0  0  0  0
    4.6358   -4.4657   -2.2301 H   0  0  0  0  0  0  0  0  0  0  0  0
    4.7106   -3.1982   -3.4137 H   0  0  0  0  0  0  0  0  0  0  0  0
    3.2244   -3.4288   -2.4991 H   0  0  0  0  0  0  0  0  0  0  0  0
    6.4801   -3.7782   -0.9248 H   0  0  0  0  0  0  0  0  0  0  0  0
    6.8730   -2.5132   -2.0417 H   0  0  0  0  0  0  0  0  0  0  0  0
    7.9359   -2.2208    0.1958 H   0  0  0  0  0  0  0  0  0  0  0  0
    6.9479   -0.8580   -0.2090 H   0  0  0  0  0  0  0  0  0  0  0  0
    6.3021   -3.1071    1.6730 H   0  0  0  0  0  0  0  0  0  0  0  0
    6.6112   -1.4509    2.0666 H   0  0  0  0  0  0  0  0  0  0  0  0
    3.4463   -0.0946    0.4423 H   0  0  0  0  0  0  0  0  0  0  0  0
    5.1817    0.2006    0.4908 H   0  0  0  0  0  0  0  0  0  0  0  0
    4.2482    0.3002    1.9226 H   0  0  0  0  0  0  0  0  0  0  0  0
    3.0056   -2.3349   -0.1543 H   0  0  0  0  0  0  0  0  0  0  0  0
    3.5879   -4.7601   -0.3697 H   0  0  0  0  0  0  0  0  0  0  0  0
    4.9653   -4.5438    0.6673 H   0  0  0  0  0  0  0  0  0  0  0  0
    2.0521   -4.1447    1.2748 H   0  0  0  0  0  0  0  0  0  0  0  0
    3.0011   -5.4877    1.8295 H   0  0  0  0  0  0  0  0  0  0  0  0
    5.4668   -4.2648    3.1519 H   0  0  0  0  0  0  0  0  0  0  0  0
    2.8695   -6.7559    4.8510 H   0  0  0  0  0  0  0  0  0  0  0  0
    3.3593   -5.3724    5.7981 H   0  0  0  0  0  0  0  0  0  0  0  0
    1.1815   -2.3389    2.9403 H   0  0  0  0  0  0  0  0  0  0  0  0
    1.8741   -1.8690    5.0281 H   0  0  0  0  0  0  0  0  0  0  0  0
    2.5138   -4.0980    6.5505 H   0  0  0  0  0  0  0  0  0  0  0  0
    3.7964   -0.8872    6.3422 H   0  0  0  0  0  0  0  0  0  0  0  0
    3.4189   -0.5712    4.0573 H   0  0  0  0  0  0  0  0  0  0  0  0
    6.0450   -1.4162    3.8431 H   0  0  0  0  0  0  0  0  0  0  0  0
    2.7920   -1.6823    2.3246 H   0  0  0  0  0  0  0  0  0  0  0  0
  1  2  1  0
  1 27  1  0
  1 28  1  0
  1 29  1  0
  2  9  1  0
  2  3  1  0
  2  4  1  0
  3 30  1  0
  3 31  1  0
  3 32  1  0
  4  5  1  0
  4 33  1  0
  4 34  1  0
  5  6  1  0
  5 35  1  0
  5 36  1  0
  6  7  1  0
  6 37  1  0
  6 38  1  0
  7 26  1  0
  7  8  1  6
  7  9  1  0
  8 39  1  0
  8 40  1  0
  8 41  1  0
  9 10  1  0
  9 42  1  6
 10 11  1  0
 10 43  1  0
 10 44  1  0
 12 11  1  6
 11 45  1  0
 11 46  1  0
 12 17  1  0
 12 26  1  0
 12 13  1  0
 13 23  1  0
 13 14  1  0
 13 47  1  6
 14 15  1  0
 15 16  1  0
 15 48  1  0
 15 49  1  0
 16 17  1  0
 17 18  1  6
 17 19  1  0
 18 50  1  0
 19 20  1  0
 19 21  1  0
 19 51  1  6
 20 52  1  0
 21 22  1  1
 21 23  1  0
 21 24  1  0
 22 53  1  0
 24 25  1  0
 24 26  1  0
 24 54  1  1
 25 55  1  0
 26 56  1  6
M  END
>  <i_m_ct_stereo_status>  (85) 
1

>  <s_m_source_file>  (85) 
/var/tmp/pbs.5076255.sched01/tmpn440o9cr/0yczfkg0t.sdf

>  <i_m_source_file_index>  (85) 
33

>  <i_lp_mmshare_version>  (85) 
48012

>  <i_f3d_flags>  (85) 
0

>  <s_epik_input>  (85) 
W0NIMl0xW0NIMl1bQ0gyXUMoW0NIM10pKFtDSDNdKVtDQEBIXShbQ0gyXVtDSDJdMilbQ0BAXTEoW0NIM10pW0NAQEhdM1tDQEhdKFtPSF0pW0NAQF0oTzQpKFtPSF0pW0NASF0oW09IXSlbQ0BdNShbT0hdKU9bQ0gyXU9bQ0BIXTRbQ0BdMjM1

>  <s_epik_cmdline>  (85) 
J2VwaWtfcHl0aG9uJywgJy1waHQnLCAnMi4wJywgJy1waCcsICc3LjAnLCAnLXRuJywgJzgnLCAnLW1hJywgJzIwMCcsICctaW1hZScsICc8aW5maWxlLm1hZT4nLCAnLW9tYWUnLCAnPG91dGZpbGUubWFlPic=

>  <r_lp_tautomer_probability>  (85) 
1

>  <r_epik_Ionization_Penalty>  (85) 
1.33965e-05

>  <r_epik_Ionization_Penalty_Charging>  (85) 
0

>  <r_epik_Ionization_Penalty_Neutral>  (85) 
1.33965e-05

>  <r_epik_State_Penalty>  (85) 
-0

>  <r_epik_Charging_Adjusted_Penalty>  (85) 
0

>  <i_epik_Tot_Q>  (85) 
0

>  <i_epik_Tot_abs_Q>  (85) 
0

>  <s_epik_Chemistry_Notes>  (85) 
This compound contains an acetal/aminal-like group ( X-CH(R)-Y where X, Y are N, S, or O) that may be acid/base labile, releasing an aldehyde.

>  <s_lp_Force_Field>  (85) 
OPLS3e

>  <r_lp_Energy>  (85) 
90.1071

>  <b_lp_Chiralities_Consistent>  (85) 
1

>  <s_lp_Variant>  (85) 
26:0-1

>  <s_i_glide_gridfile>  (85) 
pfpi4k_grid

>  <i_i_glide_lignum>  (85) 
33

>  <i_i_glide_rotatable_bonds>  (85) 
4

>  <r_i_docking_score>  (85) 
-2.42875

>  <r_i_glide_ligand_efficiency>  (85) 
-0.0934136

>  <r_i_glide_ligand_efficiency_sa>  (85) 
-0.276737

>  <r_i_glide_ligand_efficiency_ln>  (85) 
-0.570385

>  <r_i_glide_gscore>  (85) 
-2.42875

>  <r_i_glide_lipo>  (85) 
-0.310169

>  <r_i_glide_hbond>  (85) 
0

>  <r_i_glide_metal>  (85) 
-0

>  <r_i_glide_rewards>  (85) 
-0.892675

>  <r_i_glide_evdw>  (85) 
-23.5324

>  <r_i_glide_ecoul>  (85) 
-0.328608

>  <r_i_glide_erotb>  (85) 
0

>  <r_i_glide_esite>  (85) 
0

>  <r_i_glide_emodel>  (85) 
-25.8367

>  <r_i_glide_energy>  (85) 
-23.861

>  <r_i_glide_einternal>  (85) 
3.25517

>  <r_i_glide_intrahb_reward>  (85) 
-0

>  <i_i_glide_confnum>  (85) 
1

>  <i_i_glide_posenum>  (85) 
38

>  <r_i_glide_eff_state_penalty>  (85) 
0

>  <ligand_id>  (85) 
26

>  <original_smiles>  (85) 
CC1(C)CCCC2(C)C1CCC13C4OCOC1(O)C(O)C(O)(O4)C(O)C23

>  <smiles>  (85) 
[H]OC1([H])C2(O[H])OC3([H])OC([H])([H])OC1(O[H])C31C([H])([H])C([H])([H])C3([H])C(C([H])([H])[H])(C([H])([H])[H])C([H])([H])C([H])([H])C([H])([H])C3(C([H])([H])[H])C1([H])C2([H])O[H]

$$$$
28:0:0
     RDKit          3D

 75 80  0  0  1  0  0  0  0  0999 V2000
    8.4442   -6.4907    4.6438 C   0  0  0  0  0  0  0  0  0  0  0  0
    7.4465   -6.5744    5.6519 O   0  0  0  0  0  0  0  0  0  0  0  0
    6.2842   -7.3044    5.2793 C   0  0  2  0  0  0  0  0  0  0  0  0
    5.3627   -6.4185    4.3614 C   0  0  2  0  0  0  0  0  0  0  0  0
    4.4879   -6.1250    5.4163 O   0  0  0  0  0  0  0  0  0  0  0  0
    4.0089   -7.3223    6.0170 C   0  0  1  0  0  0  0  0  0  0  0  0
    2.7861   -7.0608    6.8974 C   0  0  0  0  0  0  0  0  0  0  0  0
    1.5032   -6.9590    6.4214 C   0  0  0  0  0  0  0  0  0  0  0  0
    0.9876   -6.9238    4.9362 C   0  0  2  0  0  0  0  0  0  0  0  0
    0.3997   -8.3236    4.5328 C   0  0  1  0  0  0  0  0  0  0  0  0
   -1.0202   -8.2831    4.5444 O   0  0  0  0  0  0  0  0  0  0  0  0
    0.8742   -8.9400    3.1800 C   0  0  0  0  0  0  0  0  0  0  0  0
    2.3618   -8.6999    2.7342 C   0  0  1  0  0  0  0  0  0  0  0  0
    3.0526  -10.0537    2.4253 C   0  0  0  0  0  0  0  0  0  0  0  0
    2.2664   -8.2818    1.3964 O   0  0  0  0  0  0  0  0  0  0  0  0
    3.0914   -7.5873    3.6663 C   0  0  1  0  0  0  0  0  0  0  0  0
    4.4663   -7.0286    3.1733 C   0  0  1  0  0  0  0  0  0  0  0  0
    4.2591   -6.1444    1.8993 C   0  0  0  0  0  0  0  0  0  0  0  0
    2.9267   -5.3285    1.6914 C   0  0  1  0  0  0  0  0  0  0  0  0
    2.6483   -5.1605    0.1892 C   0  0  0  0  0  0  0  0  0  0  0  0
    1.6460   -5.7332    2.5227 C   0  0  1  0  0  0  0  0  0  0  0  0
    0.5975   -6.3309    1.7897 O   0  0  0  0  0  0  0  0  0  0  0  0
    2.0468   -6.3365    3.9300 C   0  0  1  0  0  0  0  0  0  0  0  0
    2.4341   -4.9237    4.5890 C   0  0  0  0  0  0  0  0  0  0  0  0
    1.3859   -3.9637    4.7286 O   0  0  0  0  0  0  0  0  0  0  0  0
    1.4613   -2.7322    4.1715 C   0  0  0  0  0  0  0  0  0  0  0  0
    2.3766   -2.3435    3.4354 O   0  0  0  0  0  0  0  0  0  0  0  0
    0.3180   -1.9170    4.4935 C   0  0  0  0  0  0  0  0  0  0  0  0
   -0.0213   -0.6399    4.0950 C   0  0  0  0  0  0  0  0  0  0  0  0
   -1.2676   -0.3461    4.7291 C   0  0  0  0  0  0  0  0  0  0  0  0
   -1.5957   -1.4571    5.4422 C   0  0  0  0  0  0  0  0  0  0  0  0
   -0.6466   -2.4182    5.3146 O   0  0  0  0  0  0  0  0  0  0  0  0
    3.4984   -8.3535    4.9743 C   0  0  1  0  0  0  0  0  0  0  0  0
    4.4190   -9.4463    4.8093 O   0  0  0  0  0  0  0  0  0  0  0  0
    4.2141  -10.7076    5.3078 C   0  0  0  0  0  0  0  0  0  0  0  0
    2.8127  -11.0485    5.8288 C   0  0  0  0  0  0  0  0  0  0  0  0
    5.0890  -11.5625    5.3040 O   0  0  0  0  0  0  0  0  0  0  0  0
    5.4299   -7.5335    6.5793 C   0  0  1  0  0  0  0  0  0  0  0  0
    5.6434   -8.7449    7.2881 O   0  0  0  0  0  0  0  0  0  0  0  0
    9.2987   -5.9169    5.0102 H   0  0  0  0  0  0  0  0  0  0  0  0
    8.0736   -5.9916    3.7494 H   0  0  0  0  0  0  0  0  0  0  0  0
    8.8002   -7.4826    4.3670 H   0  0  0  0  0  0  0  0  0  0  0  0
    6.5863   -8.2356    4.8080 H   0  0  0  0  0  0  0  0  0  0  0  0
    5.8556   -5.4825    4.0775 H   0  0  0  0  0  0  0  0  0  0  0  0
    2.9668   -7.0740    7.9634 H   0  0  0  0  0  0  0  0  0  0  0  0
    0.7099   -6.8524    7.1479 H   0  0  0  0  0  0  0  0  0  0  0  0
    0.1554   -6.2227    4.9541 H   0  0  0  0  0  0  0  0  0  0  0  0
    0.6396   -9.0431    5.3175 H   0  0  0  0  0  0  0  0  0  0  0  0
   -1.3488   -9.1744    4.6284 H   0  0  0  0  0  0  0  0  0  0  0  0
    0.6803  -10.0147    3.2254 H   0  0  0  0  0  0  0  0  0  0  0  0
    0.1771   -8.6417    2.3958 H   0  0  0  0  0  0  0  0  0  0  0  0
    2.8785  -10.8145    3.1660 H   0  0  0  0  0  0  0  0  0  0  0  0
    4.1219   -9.9420    2.2289 H   0  0  0  0  0  0  0  0  0  0  0  0
    2.6640  -10.4991    1.5084 H   0  0  0  0  0  0  0  0  0  0  0  0
    1.9772   -9.0248    0.8925 H   0  0  0  0  0  0  0  0  0  0  0  0
    5.0824   -7.8643    2.8207 H   0  0  0  0  0  0  0  0  0  0  0  0
    5.0811   -5.4221    1.8714 H   0  0  0  0  0  0  0  0  0  0  0  0
    4.4220   -6.7785    1.0216 H   0  0  0  0  0  0  0  0  0  0  0  0
    3.1829   -4.3298    2.0290 H   0  0  0  0  0  0  0  0  0  0  0  0
    2.4392   -6.1234   -0.2690 H   0  0  0  0  0  0  0  0  0  0  0  0
    3.5218   -4.7391   -0.3113 H   0  0  0  0  0  0  0  0  0  0  0  0
    1.8021   -4.5000    0.0047 H   0  0  0  0  0  0  0  0  0  0  0  0
    1.0880   -4.8160    2.6373 H   0  0  0  0  0  0  0  0  0  0  0  0
    0.9126   -7.2050    1.5710 H   0  0  0  0  0  0  0  0  0  0  0  0
    2.6922   -4.9959    5.6370 H   0  0  0  0  0  0  0  0  0  0  0  0
    3.3226   -4.5018    4.1143 H   0  0  0  0  0  0  0  0  0  0  0  0
    0.5695   -0.0366    3.4270 H   0  0  0  0  0  0  0  0  0  0  0  0
   -1.8552    0.5605    4.6580 H   0  0  0  0  0  0  0  0  0  0  0  0
   -2.4286   -1.7446    6.0600 H   0  0  0  0  0  0  0  0  0  0  0  0
    2.6246   -8.8413    5.3605 H   0  0  0  0  0  0  0  0  0  0  0  0
    2.0600  -10.7910    5.0648 H   0  0  0  0  0  0  0  0  0  0  0  0
    2.5939  -10.5063    6.7658 H   0  0  0  0  0  0  0  0  0  0  0  0
    2.7584  -12.0933    6.0158 H   0  0  0  0  0  0  0  0  0  0  0  0
    5.6393   -6.7255    7.2847 H   0  0  0  0  0  0  0  0  0  0  0  0
    5.5602   -9.4717    6.6924 H   0  0  0  0  0  0  0  0  0  0  0  0
  1  2  1  0
  1 40  1  0
  1 41  1  0
  1 42  1  0
  2  3  1  0
  3 38  1  0
  3  4  1  0
  3 43  1  6
  4 17  1  0
  4  5  1  0
  4 44  1  6
  5  6  1  0
  6 33  1  0
  6  7  1  1
  6 38  1  0
  7  8  2  0
  7 45  1  0
  8  9  1  0
  8 46  1  0
  9 23  1  0
  9 10  1  0
  9 47  1  1
 10 11  1  0
 10 12  1  0
 10 48  1  1
 11 49  1  0
 12 13  1  0
 12 50  1  0
 12 51  1  0
 13 14  1  0
 13 15  1  6
 16 13  1  6
 14 52  1  0
 14 53  1  0
 14 54  1  0
 15 55  1  0
 16 23  1  0
 16 17  1  0
 16 33  1  0
 17 18  1  0
 17 56  1  6
 18 19  1  0
 18 57  1  0
 18 58  1  0
 19 20  1  0
 19 21  1  0
 19 59  1  1
 20 60  1  0
 20 61  1  0
 20 62  1  0
 21 22  1  0
 21 23  1  0
 21 63  1  1
 22 64  1  0
 23 24  1  1
 24 25  1  0
 24 65  1  0
 24 66  1  0
 25 26  1  0
 26 27  2  0
 26 28  1  0
 28 32  1  0
 28 29  2  0
 29 30  1  0
 29 67  1  0
 30 31  2  0
 30 68  1  0
 31 32  1  0
 31 69  1  0
 33 34  1  0
 33 70  1  1
 34 35  1  0
 35 36  1  0
 35 37  2  0
 36 71  1  0
 36 72  1  0
 36 73  1  0
 38 39  1  0
 38 74  1  1
 39 75  1  0
M  END
>  <i_m_ct_stereo_status>  (86) 
1

>  <s_m_source_file>  (86) 
/var/tmp/pbs.5076255.sched01/tmpn440o9cr/0yczfkg0t.sdf

>  <i_m_source_file_index>  (86) 
35

>  <i_lp_mmshare_version>  (86) 
48012

>  <i_f3d_flags>  (86) 
0

>  <s_epik_input>  (86) 
W0NIM11PW0NAQEhdKFtDQEBIXTFbT0hdKVtDQEhdKE9bQ0BAXTEyMylbQ0BIXTRbQ0BAXTUoW0NASF0zT0MoPU8pW0NIM10pW0NAQF0oW0NASF0oW09IXSlbQ0BASF0oW0NIMl00KVtDSDNdKShbQ0BIXShbQ0hdPVtDSF0yKVtDQEBIXShbT0hdKVtDSDJdW0NAQF01KFtDSDNdKVtPSF0pW0NIMl1PQyg9TyljNltjSF1bY0hdW2NIXW82

>  <s_epik_cmdline>  (86) 
J2VwaWtfcHl0aG9uJywgJy1waHQnLCAnMi4wJywgJy1waCcsICc3LjAnLCAnLXRuJywgJzgnLCAnLW1hJywgJzIwMCcsICctaW1hZScsICc8aW5maWxlLm1hZT4nLCAnLW9tYWUnLCAnPG91dGZpbGUubWFlPic=

>  <r_lp_tautomer_probability>  (86) 
1

>  <r_epik_Ionization_Penalty>  (86) 
4.73807e-06

>  <r_epik_Ionization_Penalty_Charging>  (86) 
0

>  <r_epik_Ionization_Penalty_Neutral>  (86) 
4.73807e-06

>  <r_epik_State_Penalty>  (86) 
-0

>  <r_epik_Charging_Adjusted_Penalty>  (86) 
0

>  <i_epik_Tot_Q>  (86) 
0

>  <i_epik_Tot_abs_Q>  (86) 
0

>  <s_epik_Chemistry_Notes>  (86) 
This compound has an ester and may undergo hydrolysis at high or low pH.

>  <s_lp_Force_Field>  (86) 
OPLS3e

>  <r_lp_Energy>  (86) 
139.136

>  <b_lp_Chiralities_Consistent>  (86) 
1

>  <s_lp_Variant>  (86) 
28:0-1

>  <s_i_glide_gridfile>  (86) 
pfpi4k_grid

>  <i_i_glide_lignum>  (86) 
35

>  <i_i_glide_rotatable_bonds>  (86) 
11

>  <r_i_docking_score>  (86) 
-2.72308

>  <r_i_glide_ligand_efficiency>  (86) 
-0.0698226

>  <r_i_glide_ligand_efficiency_sa>  (86) 
-0.236783

>  <r_i_glide_ligand_efficiency_ln>  (86) 
-0.583906

>  <r_i_glide_gscore>  (86) 
-2.72308

>  <r_i_glide_lipo>  (86) 
-0.0773644

>  <r_i_glide_hbond>  (86) 
-0.126945

>  <r_i_glide_metal>  (86) 
-0

>  <r_i_glide_rewards>  (86) 
-0.519464

>  <r_i_glide_evdw>  (86) 
-23.755

>  <r_i_glide_ecoul>  (86) 
-7.12491

>  <r_i_glide_erotb>  (86) 
0.275438

>  <r_i_glide_esite>  (86) 
-0.0182574

>  <r_i_glide_emodel>  (86) 
-38.1876

>  <r_i_glide_energy>  (86) 
-30.8799

>  <r_i_glide_einternal>  (86) 
7.85649

>  <r_i_glide_intrahb_reward>  (86) 
-0.5

>  <i_i_glide_confnum>  (86) 
4

>  <i_i_glide_posenum>  (86) 
9

>  <r_i_glide_eff_state_penalty>  (86) 
0

>  <ligand_id>  (86) 
28

>  <original_smiles>  (86) 
COC1C2OC3(C=CC4C(O)CC(C)(O)C5(C2CC(C)C(O)C45COC(=O)c2ccco2)C3OC(C)=O)C1O

>  <smiles>  (86) 
[H]OC1([H])C([H])([H])C(O[H])(C([H])([H])[H])C23C([H])(OC(=O)C([H])([H])[H])C45OC([H])(C([H])(OC([H])([H])[H])C4([H])O[H])C2([H])C([H])([H])C([H])(C([H])([H])[H])C([H])(O[H])C3(C([H])([H])OC(=O)c2oc([H])c([H])c2[H])C1([H])C([H])=C5[H]

$$$$
28:0:1
     RDKit          3D

 75 80  0  0  1  0  0  0  0  0999 V2000
    4.6633  -13.2386    3.9483 C   0  0  0  0  0  0  0  0  0  0  0  0
    5.3149  -12.0245    4.2945 O   0  0  0  0  0  0  0  0  0  0  0  0
    4.4990  -11.0954    4.9980 C   0  0  2  0  0  0  0  0  0  0  0  0
    3.4588  -10.4354    4.0270 C   0  0  2  0  0  0  0  0  0  0  0  0
    4.1889   -9.2403    3.9442 O   0  0  0  0  0  0  0  0  0  0  0  0
    4.4668   -8.7072    5.2302 C   0  0  1  0  0  0  0  0  0  0  0  0
    4.9415   -7.2540    5.1082 C   0  0  0  0  0  0  0  0  0  0  0  0
    4.1026   -6.1783    4.9622 C   0  0  0  0  0  0  0  0  0  0  0  0
    2.5528   -6.1492    4.7223 C   0  0  2  0  0  0  0  0  0  0  0  0
    1.8020   -5.8259    6.0509 C   0  0  1  0  0  0  0  0  0  0  0  0
    1.3649   -4.4834    6.0284 O   0  0  0  0  0  0  0  0  0  0  0  0
    0.5919   -6.7287    6.4252 C   0  0  0  0  0  0  0  0  0  0  0  0
    0.6893   -8.2537    6.0823 C   0  0  1  0  0  0  0  0  0  0  0  0
    0.4769   -9.0621    7.3853 C   0  0  0  0  0  0  0  0  0  0  0  0
   -0.5374   -8.5920    5.4681 O   0  0  0  0  0  0  0  0  0  0  0  0
    1.9542   -8.5803    5.1332 C   0  0  1  0  0  0  0  0  0  0  0  0
    1.9850   -9.9945    4.4645 C   0  0  1  0  0  0  0  0  0  0  0  0
    0.8555  -10.1218    3.3918 C   0  0  0  0  0  0  0  0  0  0  0  0
    0.3408   -8.8620    2.6011 C   0  0  1  0  0  0  0  0  0  0  0  0
   -1.1474   -9.0514    2.2277 C   0  0  0  0  0  0  0  0  0  0  0  0
    0.6858   -7.4218    3.1373 C   0  0  1  0  0  0  0  0  0  0  0  0
   -0.4222   -6.7117    3.6430 O   0  0  0  0  0  0  0  0  0  0  0  0
    2.0416   -7.4169    3.9552 C   0  0  1  0  0  0  0  0  0  0  0  0
    2.9873   -7.4491    2.6507 C   0  0  0  0  0  0  0  0  0  0  0  0
    2.9550   -6.2746    1.8440 O   0  0  0  0  0  0  0  0  0  0  0  0
    3.8674   -6.0969    0.8785 C   0  0  0  0  0  0  0  0  0  0  0  0
    4.6852   -6.9403    0.5018 O   0  0  0  0  0  0  0  0  0  0  0  0
    3.8061   -4.7502    0.3132 C   0  0  0  0  0  0  0  0  0  0  0  0
    4.5098   -4.1514   -0.6922 C   0  0  0  0  0  0  0  0  0  0  0  0
    3.9941   -2.8275   -0.8104 C   0  0  0  0  0  0  0  0  0  0  0  0
    3.0345   -2.7154    0.1517 C   0  0  0  0  0  0  0  0  0  0  0  0
    2.9085   -3.8728    0.8433 O   0  0  0  0  0  0  0  0  0  0  0  0
    3.1955   -8.6499    6.0901 C   0  0  1  0  0  0  0  0  0  0  0  0
    3.1850   -9.6844    7.0903 O   0  0  0  0  0  0  0  0  0  0  0  0
    3.5407   -9.4502    8.3837 C   0  0  0  0  0  0  0  0  0  0  0  0
    3.4313  -10.6969    9.2540 C   0  0  0  0  0  0  0  0  0  0  0  0
    3.8866   -8.3659    8.8510 O   0  0  0  0  0  0  0  0  0  0  0  0
    5.4196   -9.9024    5.4360 C   0  0  1  0  0  0  0  0  0  0  0  0
    6.0222  -10.0068    6.7050 O   0  0  0  0  0  0  0  0  0  0  0  0
    5.3596  -13.8929    3.4227 H   0  0  0  0  0  0  0  0  0  0  0  0
    3.8148  -13.0761    3.2846 H   0  0  0  0  0  0  0  0  0  0  0  0
    4.3098  -13.7607    4.8379 H   0  0  0  0  0  0  0  0  0  0  0  0
    4.0243  -11.6016    5.8404 H   0  0  0  0  0  0  0  0  0  0  0  0
    3.4656  -10.8884    3.0362 H   0  0  0  0  0  0  0  0  0  0  0  0
    5.9995   -7.0934    5.2431 H   0  0  0  0  0  0  0  0  0  0  0  0
    4.5498   -5.1970    4.9532 H   0  0  0  0  0  0  0  0  0  0  0  0
    2.3907   -5.2976    4.0645 H   0  0  0  0  0  0  0  0  0  0  0  0
    2.5142   -5.8683    6.8791 H   0  0  0  0  0  0  0  0  0  0  0  0
    1.1327   -4.2232    6.9179 H   0  0  0  0  0  0  0  0  0  0  0  0
    0.4304   -6.6042    7.4878 H   0  0  0  0  0  0  0  0  0  0  0  0
   -0.3294   -6.3031    6.0212 H   0  0  0  0  0  0  0  0  0  0  0  0
    1.0945   -8.6909    8.1887 H   0  0  0  0  0  0  0  0  0  0  0  0
    0.6497  -10.1229    7.2491 H   0  0  0  0  0  0  0  0  0  0  0  0
   -0.5293   -8.9501    7.7692 H   0  0  0  0  0  0  0  0  0  0  0  0
   -0.6344   -9.5424    5.4323 H   0  0  0  0  0  0  0  0  0  0  0  0
    1.7291  -10.7355    5.2087 H   0  0  0  0  0  0  0  0  0  0  0  0
    1.1717  -10.8478    2.6566 H   0  0  0  0  0  0  0  0  0  0  0  0
   -0.0154  -10.6018    3.8753 H   0  0  0  0  0  0  0  0  0  0  0  0
    0.8582   -8.9130    1.6400 H   0  0  0  0  0  0  0  0  0  0  0  0
   -1.7899   -9.0837    3.1111 H   0  0  0  0  0  0  0  0  0  0  0  0
   -1.2942   -9.9947    1.7002 H   0  0  0  0  0  0  0  0  0  0  0  0
   -1.5073   -8.2539    1.5750 H   0  0  0  0  0  0  0  0  0  0  0  0
    0.7811   -6.8116    2.2415 H   0  0  0  0  0  0  0  0  0  0  0  0
   -0.6855   -7.1951    4.4356 H   0  0  0  0  0  0  0  0  0  0  0  0
    4.0477   -7.4657    2.8578 H   0  0  0  0  0  0  0  0  0  0  0  0
    2.7995   -8.3153    2.0206 H   0  0  0  0  0  0  0  0  0  0  0  0
    5.2793   -4.6263   -1.2881 H   0  0  0  0  0  0  0  0  0  0  0  0
    4.2635   -2.0484   -1.5010 H   0  0  0  0  0  0  0  0  0  0  0  0
    2.3581   -1.9306    0.4638 H   0  0  0  0  0  0  0  0  0  0  0  0
    3.2332   -7.7437    6.6739 H   0  0  0  0  0  0  0  0  0  0  0  0
    4.0386  -11.5019    8.8435 H   0  0  0  0  0  0  0  0  0  0  0  0
    2.3963  -11.0374    9.2889 H   0  0  0  0  0  0  0  0  0  0  0  0
    3.7618  -10.4873   10.2713 H   0  0  0  0  0  0  0  0  0  0  0  0
    6.2485   -9.8029    4.7292 H   0  0  0  0  0  0  0  0  0  0  0  0
    5.3438  -10.2318    7.3439 H   0  0  0  0  0  0  0  0  0  0  0  0
  1  2  1  0
  1 40  1  0
  1 41  1  0
  1 42  1  0
  2  3  1  0
  3 38  1  0
  3  4  1  0
  3 43  1  1
  4 17  1  0
  4  5  1  0
  4 44  1  6
  5  6  1  0
  6 33  1  0
  6  7  1  6
  6 38  1  0
  7  8  2  0
  7 45  1  0
  8  9  1  0
  8 46  1  0
  9 23  1  0
  9 10  1  0
  9 47  1  6
 10 11  1  0
 10 12  1  0
 10 48  1  1
 11 49  1  0
 12 13  1  0
 12 50  1  0
 12 51  1  0
 13 14  1  0
 13 15  1  6
 16 13  1  1
 14 52  1  0
 14 53  1  0
 14 54  1  0
 15 55  1  0
 16 23  1  0
 16 17  1  0
 16 33  1  0
 17 18  1  0
 17 56  1  1
 18 19  1  0
 18 57  1  0
 18 58  1  0
 19 20  1  0
 19 21  1  0
 19 59  1  6
 20 60  1  0
 20 61  1  0
 20 62  1  0
 21 22  1  0
 21 23  1  0
 21 63  1  6
 22 64  1  0
 23 24  1  6
 24 25  1  0
 24 65  1  0
 24 66  1  0
 25 26  1  0
 26 27  2  0
 26 28  1  0
 28 32  1  0
 28 29  2  0
 29 30  1  0
 29 67  1  0
 30 31  2  0
 30 68  1  0
 31 32  1  0
 31 69  1  0
 33 34  1  0
 33 70  1  1
 34 35  1  0
 35 36  1  0
 35 37  2  0
 36 71  1  0
 36 72  1  0
 36 73  1  0
 38 39  1  0
 38 74  1  6
 39 75  1  0
M  END
>  <i_m_ct_stereo_status>  (87) 
1

>  <s_m_source_file>  (87) 
/var/tmp/pbs.5076255.sched01/tmpn440o9cr/0yczfkg0t.sdf

>  <i_m_source_file_index>  (87) 
35

>  <i_lp_mmshare_version>  (87) 
48012

>  <i_f3d_flags>  (87) 
0

>  <s_epik_input>  (87) 
W0NIM11PW0NAQEhdKFtDQEBIXTFbT0hdKVtDQEhdKE9bQ0BAXTEyMylbQ0BIXTRbQ0BAXTUoW0NASF0zT0MoPU8pW0NIM10pW0NAQF0oW0NASF0oW09IXSlbQ0BASF0oW0NIMl00KVtDSDNdKShbQ0BIXShbQ0hdPVtDSF0yKVtDQEBIXShbT0hdKVtDSDJdW0NAQF01KFtDSDNdKVtPSF0pW0NIMl1PQyg9TyljNltjSF1bY0hdW2NIXW82

>  <s_epik_cmdline>  (87) 
J2VwaWtfcHl0aG9uJywgJy1waHQnLCAnMi4wJywgJy1waCcsICc3LjAnLCAnLXRuJywgJzgnLCAnLW1hJywgJzIwMCcsICctaW1hZScsICc8aW5maWxlLm1hZT4nLCAnLW9tYWUnLCAnPG91dGZpbGUubWFlPic=

>  <r_lp_tautomer_probability>  (87) 
1

>  <r_epik_Ionization_Penalty>  (87) 
4.73807e-06

>  <r_epik_Ionization_Penalty_Charging>  (87) 
0

>  <r_epik_Ionization_Penalty_Neutral>  (87) 
4.73807e-06

>  <r_epik_State_Penalty>  (87) 
-0

>  <r_epik_Charging_Adjusted_Penalty>  (87) 
0

>  <i_epik_Tot_Q>  (87) 
0

>  <i_epik_Tot_abs_Q>  (87) 
0

>  <s_epik_Chemistry_Notes>  (87) 
This compound has an ester and may undergo hydrolysis at high or low pH.

>  <s_lp_Force_Field>  (87) 
OPLS3e

>  <r_lp_Energy>  (87) 
139.136

>  <b_lp_Chiralities_Consistent>  (87) 
1

>  <s_lp_Variant>  (87) 
28:0-1

>  <s_i_glide_gridfile>  (87) 
pfpi4k_grid

>  <i_i_glide_lignum>  (87) 
35

>  <i_i_glide_rotatable_bonds>  (87) 
11

>  <r_i_docking_score>  (87) 
-2.67586

>  <r_i_glide_ligand_efficiency>  (87) 
-0.0686119

>  <r_i_glide_ligand_efficiency_sa>  (87) 
-0.232678

>  <r_i_glide_ligand_efficiency_ln>  (87) 
-0.573781

>  <r_i_glide_gscore>  (87) 
-2.67586

>  <r_i_glide_lipo>  (87) 
-0.180161

>  <r_i_glide_hbond>  (87) 
0

>  <r_i_glide_metal>  (87) 
-0

>  <r_i_glide_rewards>  (87) 
-0.586548

>  <r_i_glide_evdw>  (87) 
-26.9077

>  <r_i_glide_ecoul>  (87) 
-5.40718

>  <r_i_glide_erotb>  (87) 
0.275438

>  <r_i_glide_esite>  (87) 
-0.0281327

>  <r_i_glide_emodel>  (87) 
-42.8675

>  <r_i_glide_energy>  (87) 
-32.3149

>  <r_i_glide_einternal>  (87) 
2.31081

>  <r_i_glide_intrahb_reward>  (87) 
-0.5

>  <i_i_glide_confnum>  (87) 
5

>  <i_i_glide_posenum>  (87) 
2

>  <r_i_glide_eff_state_penalty>  (87) 
0

>  <ligand_id>  (87) 
28

>  <original_smiles>  (87) 
COC1C2OC3(C=CC4C(O)CC(C)(O)C5(C2CC(C)C(O)C45COC(=O)c2ccco2)C3OC(C)=O)C1O

>  <smiles>  (87) 
[H]OC1([H])C([H])([H])C(O[H])(C([H])([H])[H])C23C([H])(OC(=O)C([H])([H])[H])C45OC([H])(C([H])(OC([H])([H])[H])C4([H])O[H])C2([H])C([H])([H])C([H])(C([H])([H])[H])C([H])(O[H])C3(C([H])([H])OC(=O)c2oc([H])c([H])c2[H])C1([H])C([H])=C5[H]

$$$$
28:0:2
     RDKit          3D

 75 80  0  0  1  0  0  0  0  0999 V2000
    7.3197   -8.7118    7.2231 C   0  0  0  0  0  0  0  0  0  0  0  0
    5.9266   -8.7521    7.4832 O   0  0  0  0  0  0  0  0  0  0  0  0
    5.1129   -8.8572    6.3220 C   0  0  2  0  0  0  0  0  0  0  0  0
    4.9507   -7.4499    5.6426 C   0  0  2  0  0  0  0  0  0  0  0  0
    3.6575   -7.2973    6.1634 O   0  0  0  0  0  0  0  0  0  0  0  0
    2.8394   -8.4110    5.8075 C   0  0  1  0  0  0  0  0  0  0  0  0
    1.3501   -8.0979    6.0164 C   0  0  0  0  0  0  0  0  0  0  0  0
    0.5659   -7.4462    5.1101 C   0  0  0  0  0  0  0  0  0  0  0  0
    0.9803   -6.6857    3.7868 C   0  0  2  0  0  0  0  0  0  0  0  0
    0.6083   -7.5441    2.5391 C   0  0  1  0  0  0  0  0  0  0  0  0
   -0.5531   -7.0051    1.9201 O   0  0  0  0  0  0  0  0  0  0  0  0
    1.7066   -7.7338    1.4557 C   0  0  0  0  0  0  0  0  0  0  0  0
    3.1960   -7.8348    1.9489 C   0  0  1  0  0  0  0  0  0  0  0  0
    3.7762   -9.1784    1.4119 C   0  0  0  0  0  0  0  0  0  0  0  0
    3.9589   -6.9903    1.1113 O   0  0  0  0  0  0  0  0  0  0  0  0
    3.3694   -7.4641    3.5194 C   0  0  1  0  0  0  0  0  0  0  0  0
    4.8339   -7.2518    4.0451 C   0  0  1  0  0  0  0  0  0  0  0  0
    5.4454   -5.9447    3.4424 C   0  0  0  0  0  0  0  0  0  0  0  0
    4.5227   -4.7256    3.0760 C   0  0  1  0  0  0  0  0  0  0  0  0
    5.1504   -3.9491    1.9044 C   0  0  0  0  0  0  0  0  0  0  0  0
    2.9734   -4.9594    2.9120 C   0  0  1  0  0  0  0  0  0  0  0  0
    2.4990   -4.8929    1.5870 O   0  0  0  0  0  0  0  0  0  0  0  0
    2.4504   -6.1322    3.8412 C   0  0  1  0  0  0  0  0  0  0  0  0
    2.4482   -5.2951    5.2146 C   0  0  0  0  0  0  0  0  0  0  0  0
    1.6865   -4.0797    5.2423 O   0  0  0  0  0  0  0  0  0  0  0  0
    0.4471   -3.9801    5.7040 C   0  0  0  0  0  0  0  0  0  0  0  0
   -0.2047   -4.8707    6.2702 O   0  0  0  0  0  0  0  0  0  0  0  0
   -0.1409   -2.6697    5.4138 C   0  0  0  0  0  0  0  0  0  0  0  0
   -1.3718   -2.2149    5.6842 C   0  0  0  0  0  0  0  0  0  0  0  0
   -1.4093   -0.8468    5.2028 C   0  0  0  0  0  0  0  0  0  0  0  0
   -0.1960   -0.6371    4.6440 C   0  0  0  0  0  0  0  0  0  0  0  0
    0.6048   -1.7341    4.7478 O   0  0  0  0  0  0  0  0  0  0  0  0
    2.9388   -8.7478    4.2989 C   0  0  1  0  0  0  0  0  0  0  0  0
    3.6960   -9.9471    4.0644 O   0  0  0  0  0  0  0  0  0  0  0  0
    3.1277  -11.1925    3.9045 C   0  0  0  0  0  0  0  0  0  0  0  0
    1.6021  -11.2613    3.8430 C   0  0  0  0  0  0  0  0  0  0  0  0
    3.8167  -12.2176    3.7964 O   0  0  0  0  0  0  0  0  0  0  0  0
    3.6713   -9.2529    6.7932 C   0  0  1  0  0  0  0  0  0  0  0  0
    3.4321  -10.6546    6.8146 O   0  0  0  0  0  0  0  0  0  0  0  0
    7.8679   -8.6251    8.1623 H   0  0  0  0  0  0  0  0  0  0  0  0
    7.5863   -7.8577    6.6007 H   0  0  0  0  0  0  0  0  0  0  0  0
    7.6501   -9.6243    6.7257 H   0  0  0  0  0  0  0  0  0  0  0  0
    5.5374   -9.6073    5.6552 H   0  0  0  0  0  0  0  0  0  0  0  0
    5.6024   -6.7081    6.1108 H   0  0  0  0  0  0  0  0  0  0  0  0
    0.9035   -8.5488    6.8915 H   0  0  0  0  0  0  0  0  0  0  0  0
   -0.4976   -7.3856    5.3122 H   0  0  0  0  0  0  0  0  0  0  0  0
    0.3339   -5.8137    3.7328 H   0  0  0  0  0  0  0  0  0  0  0  0
    0.3000   -8.5460    2.8580 H   0  0  0  0  0  0  0  0  0  0  0  0
   -0.8760   -7.6473    1.2978 H   0  0  0  0  0  0  0  0  0  0  0  0
    1.4387   -8.6125    0.8722 H   0  0  0  0  0  0  0  0  0  0  0  0
    1.6092   -6.9428    0.7077 H   0  0  0  0  0  0  0  0  0  0  0  0
    3.1293  -10.0211    1.6196 H   0  0  0  0  0  0  0  0  0  0  0  0
    4.7681   -9.3919    1.7962 H   0  0  0  0  0  0  0  0  0  0  0  0
    3.8476   -9.1997    0.3288 H   0  0  0  0  0  0  0  0  0  0  0  0
    3.9862   -7.3772    0.2468 H   0  0  0  0  0  0  0  0  0  0  0  0
    5.4641   -8.0544    3.6652 H   0  0  0  0  0  0  0  0  0  0  0  0
    6.1972   -5.5924    4.1386 H   0  0  0  0  0  0  0  0  0  0  0  0
    6.0124   -6.2419    2.5407 H   0  0  0  0  0  0  0  0  0  0  0  0
    4.6089   -4.0509    3.9349 H   0  0  0  0  0  0  0  0  0  0  0  0
    5.1665   -4.5592    0.9969 H   0  0  0  0  0  0  0  0  0  0  0  0
    6.1846   -3.6833    2.1246 H   0  0  0  0  0  0  0  0  0  0  0  0
    4.6049   -3.0319    1.6794 H   0  0  0  0  0  0  0  0  0  0  0  0
    2.5362   -4.0056    3.1787 H   0  0  0  0  0  0  0  0  0  0  0  0
    2.9633   -5.5904    1.1154 H   0  0  0  0  0  0  0  0  0  0  0  0
    2.1083   -5.8307    6.0909 H   0  0  0  0  0  0  0  0  0  0  0  0
    3.4695   -5.0087    5.4339 H   0  0  0  0  0  0  0  0  0  0  0  0
   -2.1376   -2.7948    6.1765 H   0  0  0  0  0  0  0  0  0  0  0  0
   -2.2239   -0.1419    5.2737 H   0  0  0  0  0  0  0  0  0  0  0  0
    0.2768    0.2127    4.1428 H   0  0  0  0  0  0  0  0  0  0  0  0
    1.9718   -9.0216    3.8989 H   0  0  0  0  0  0  0  0  0  0  0  0
    1.2360  -10.6443    3.0277 H   0  0  0  0  0  0  0  0  0  0  0  0
    1.1511  -10.9295    4.7734 H   0  0  0  0  0  0  0  0  0  0  0  0
    1.2539  -12.2824    3.6690 H   0  0  0  0  0  0  0  0  0  0  0  0
    3.5034   -8.8669    7.8062 H   0  0  0  0  0  0  0  0  0  0  0  0
    2.5808  -10.8850    7.1761 H   0  0  0  0  0  0  0  0  0  0  0  0
  1  2  1  0
  1 40  1  0
  1 41  1  0
  1 42  1  0
  2  3  1  0
  3 38  1  0
  3  4  1  0
  3 43  1  6
  4 17  1  0
  4  5  1  0
  4 44  1  1
  5  6  1  0
  6 33  1  0
  6  7  1  1
  6 38  1  0
  7  8  2  0
  7 45  1  0
  8  9  1  0
  8 46  1  0
  9 23  1  0
  9 10  1  0
  9 47  1  6
 10 11  1  0
 10 12  1  0
 10 48  1  1
 11 49  1  0
 12 13  1  0
 12 50  1  0
 12 51  1  0
 13 14  1  0
 13 15  1  6
 16 13  1  6
 14 52  1  0
 14 53  1  0
 14 54  1  0
 15 55  1  0
 16 23  1  0
 16 17  1  0
 16 33  1  0
 17 18  1  0
 17 56  1  6
 18 19  1  0
 18 57  1  0
 18 58  1  0
 19 20  1  0
 19 21  1  0
 19 59  1  1
 20 60  1  0
 20 61  1  0
 20 62  1  0
 21 22  1  0
 21 23  1  0
 21 63  1  1
 22 64  1  0
 23 24  1  1
 24 25  1  0
 24 65  1  0
 24 66  1  0
 25 26  1  0
 26 27  2  0
 26 28  1  0
 28 32  1  0
 28 29  2  0
 29 30  1  0
 29 67  1  0
 30 31  2  0
 30 68  1  0
 31 32  1  0
 31 69  1  0
 33 34  1  0
 33 70  1  6
 34 35  1  0
 35 36  1  0
 35 37  2  0
 36 71  1  0
 36 72  1  0
 36 73  1  0
 38 39  1  0
 38 74  1  1
 39 75  1  0
M  END
>  <i_m_ct_stereo_status>  (88) 
1

>  <s_m_source_file>  (88) 
/var/tmp/pbs.5076255.sched01/tmpn440o9cr/0yczfkg0t.sdf

>  <i_m_source_file_index>  (88) 
35

>  <i_lp_mmshare_version>  (88) 
48012

>  <i_f3d_flags>  (88) 
0

>  <s_epik_input>  (88) 
W0NIM11PW0NAQEhdKFtDQEBIXTFbT0hdKVtDQEhdKE9bQ0BAXTEyMylbQ0BIXTRbQ0BAXTUoW0NASF0zT0MoPU8pW0NIM10pW0NAQF0oW0NASF0oW09IXSlbQ0BASF0oW0NIMl00KVtDSDNdKShbQ0BIXShbQ0hdPVtDSF0yKVtDQEBIXShbT0hdKVtDSDJdW0NAQF01KFtDSDNdKVtPSF0pW0NIMl1PQyg9TyljNltjSF1bY0hdW2NIXW82

>  <s_epik_cmdline>  (88) 
J2VwaWtfcHl0aG9uJywgJy1waHQnLCAnMi4wJywgJy1waCcsICc3LjAnLCAnLXRuJywgJzgnLCAnLW1hJywgJzIwMCcsICctaW1hZScsICc8aW5maWxlLm1hZT4nLCAnLW9tYWUnLCAnPG91dGZpbGUubWFlPic=

>  <r_lp_tautomer_probability>  (88) 
1

>  <r_epik_Ionization_Penalty>  (88) 
4.73807e-06

>  <r_epik_Ionization_Penalty_Charging>  (88) 
0

>  <r_epik_Ionization_Penalty_Neutral>  (88) 
4.73807e-06

>  <r_epik_State_Penalty>  (88) 
-0

>  <r_epik_Charging_Adjusted_Penalty>  (88) 
0

>  <i_epik_Tot_Q>  (88) 
0

>  <i_epik_Tot_abs_Q>  (88) 
0

>  <s_epik_Chemistry_Notes>  (88) 
This compound has an ester and may undergo hydrolysis at high or low pH.

>  <s_lp_Force_Field>  (88) 
OPLS3e

>  <r_lp_Energy>  (88) 
139.136

>  <b_lp_Chiralities_Consistent>  (88) 
1

>  <s_lp_Variant>  (88) 
28:0-1

>  <s_i_glide_gridfile>  (88) 
pfpi4k_grid

>  <i_i_glide_lignum>  (88) 
35

>  <i_i_glide_rotatable_bonds>  (88) 
11

>  <r_i_docking_score>  (88) 
-2.59231

>  <r_i_glide_ligand_efficiency>  (88) 
-0.0664696

>  <r_i_glide_ligand_efficiency_sa>  (88) 
-0.225412

>  <r_i_glide_ligand_efficiency_ln>  (88) 
-0.555866

>  <r_i_glide_gscore>  (88) 
-2.59231

>  <r_i_glide_lipo>  (88) 
-0.154118

>  <r_i_glide_hbond>  (88) 
-0.137525

>  <r_i_glide_metal>  (88) 
-0

>  <r_i_glide_rewards>  (88) 
-0.5

>  <r_i_glide_evdw>  (88) 
-26.1755

>  <r_i_glide_ecoul>  (88) 
-4.93955

>  <r_i_glide_erotb>  (88) 
0.275438

>  <r_i_glide_esite>  (88) 
-0.0264036

>  <r_i_glide_emodel>  (88) 
-38.1343

>  <r_i_glide_energy>  (88) 
-31.115

>  <r_i_glide_einternal>  (88) 
8.06727

>  <r_i_glide_intrahb_reward>  (88) 
-0.5

>  <i_i_glide_confnum>  (88) 
5

>  <i_i_glide_posenum>  (88) 
28

>  <r_i_glide_eff_state_penalty>  (88) 
0

>  <ligand_id>  (88) 
28

>  <original_smiles>  (88) 
COC1C2OC3(C=CC4C(O)CC(C)(O)C5(C2CC(C)C(O)C45COC(=O)c2ccco2)C3OC(C)=O)C1O

>  <smiles>  (88) 
[H]OC1([H])C([H])([H])C(O[H])(C([H])([H])[H])C23C([H])(OC(=O)C([H])([H])[H])C45OC([H])(C([H])(OC([H])([H])[H])C4([H])O[H])C2([H])C([H])([H])C([H])(C([H])([H])[H])C([H])(O[H])C3(C([H])([H])OC(=O)c2oc([H])c([H])c2[H])C1([H])C([H])=C5[H]

$$$$
29:0:0
     RDKit          3D

 69 75  0  0  1  0  0  0  0  0999 V2000
    3.3372   -0.0922   -5.2650 C   0  0  0  0  0  0  0  0  0  0  0  0
    3.7694   -0.4677   -3.9662 O   0  0  0  0  0  0  0  0  0  0  0  0
    3.6535   -1.7482   -3.5599 C   0  0  0  0  0  0  0  0  0  0  0  0
    3.4125   -2.6881   -4.3212 O   0  0  0  0  0  0  0  0  0  0  0  0
    3.8324   -1.9049   -2.0921 C   0  0  0  0  0  0  0  0  0  0  0  0
    4.3968   -0.8853   -1.3009 C   0  0  0  0  0  0  0  0  0  0  0  0
    4.5124   -1.0369    0.0922 C   0  0  0  0  0  0  0  0  0  0  0  0
    4.0635   -2.2182    0.7175 C   0  0  0  0  0  0  0  0  0  0  0  0
    4.1905   -2.3689    2.2213 C   0  0  0  0  0  0  0  0  0  0  0  0
    3.8015   -1.1795    2.8899 O   0  0  0  0  0  0  0  0  0  0  0  0
    3.8543   -1.2701    4.3025 C   0  0  0  0  0  0  0  0  0  0  0  0
    3.5998    0.1409    4.8413 C   0  0  2  0  0  0  0  0  0  0  0  0
    3.6110    0.4374    6.3944 C   0  0  0  0  0  0  0  0  0  0  0  0
    2.1292    0.1253    6.3344 C   0  0  1  0  0  0  0  0  0  0  0  0
    0.7292    0.4521    7.2011 C   0  0  2  0  0  0  0  0  0  0  0  0
   -0.4297    1.7977    7.0707 C   0  0  2  0  0  0  0  0  0  0  0  0
   -1.5296    2.2890    5.9527 C   0  0  0  0  0  0  0  0  0  0  0  0
   -1.4717    1.8727    4.3484 C   0  0  0  0  0  0  0  0  0  0  0  0
   -0.2897    1.2494    3.5038 N   0  0  1  0  0  0  0  0  0  0  0  0
   -0.0125    1.9571    2.2320 C   0  0  0  0  0  0  0  0  0  0  0  0
    0.8544    0.2861    3.9411 C   0  0  2  0  0  0  0  0  0  0  0  0
    0.2126   -0.6077    4.9033 C   0  0  2  0  0  0  0  0  0  0  0  0
   -1.2350   -1.0409    5.0827 C   0  0  0  0  0  0  0  0  0  0  0  0
   -1.3400   -0.2686    6.3163 O   0  0  0  0  0  0  0  0  0  0  0  0
    0.0064    0.3647    6.0771 C   0  0  1  0  0  0  0  0  0  0  0  0
    0.6544    2.0572    6.3236 C   0  0  2  0  0  0  0  0  0  0  0  0
    1.6676    2.5560    7.3115 O   0  0  0  0  0  0  0  0  0  0  0  0
    1.4487    3.7511    8.0788 C   0  0  0  0  0  0  0  0  0  0  0  0
    1.1041    3.0365    5.2152 C   0  0  0  0  0  0  0  0  0  0  0  0
    2.2665    2.2975    4.5584 C   0  0  0  0  0  0  0  0  0  0  0  0
    2.1718    0.7562    4.7933 C   0  0  2  0  0  0  0  0  0  0  0  0
    3.5124   -3.2503   -0.0683 C   0  0  0  0  0  0  0  0  0  0  0  0
    3.3936   -3.0895   -1.4618 C   0  0  0  0  0  0  0  0  0  0  0  0
    3.5518    0.9621   -5.4362 H   0  0  0  0  0  0  0  0  0  0  0  0
    2.2592   -0.2377   -5.3490 H   0  0  0  0  0  0  0  0  0  0  0  0
    3.8142   -0.6640   -6.0598 H   0  0  0  0  0  0  0  0  0  0  0  0
    4.7081    0.0447   -1.7571 H   0  0  0  0  0  0  0  0  0  0  0  0
    4.9265   -0.2350    0.6838 H   0  0  0  0  0  0  0  0  0  0  0  0
    3.5888   -3.2094    2.5666 H   0  0  0  0  0  0  0  0  0  0  0  0
    5.2311   -2.5973    2.4512 H   0  0  0  0  0  0  0  0  0  0  0  0
    3.1132   -1.9923    4.6446 H   0  0  0  0  0  0  0  0  0  0  0  0
    4.8355   -1.6282    4.6189 H   0  0  0  0  0  0  0  0  0  0  0  0
    4.3177    0.8207    4.3801 H   0  0  0  0  0  0  0  0  0  0  0  0
    4.2025   -0.2770    6.9699 H   0  0  0  0  0  0  0  0  0  0  0  0
    3.8615    1.4657    6.6656 H   0  0  0  0  0  0  0  0  0  0  0  0
    2.1934   -0.9626    6.4031 H   0  0  0  0  0  0  0  0  0  0  0  0
    0.4606   -0.3117    7.9310 H   0  0  0  0  0  0  0  0  0  0  0  0
   -0.5399    2.3097    8.0213 H   0  0  0  0  0  0  0  0  0  0  0  0
   -2.5267    2.0362    6.3195 H   0  0  0  0  0  0  0  0  0  0  0  0
   -1.5411    3.3818    5.9863 H   0  0  0  0  0  0  0  0  0  0  0  0
   -2.3571    1.2654    4.1638 H   0  0  0  0  0  0  0  0  0  0  0  0
   -1.7498    2.7890    3.8245 H   0  0  0  0  0  0  0  0  0  0  0  0
    0.4536    2.9223    2.4139 H   0  0  0  0  0  0  0  0  0  0  0  0
   -0.9434    2.1192    1.6875 H   0  0  0  0  0  0  0  0  0  0  0  0
    0.6363    1.3706    1.5792 H   0  0  0  0  0  0  0  0  0  0  0  0
    1.1770   -0.2862    3.0703 H   0  0  0  0  0  0  0  0  0  0  0  0
    0.7802   -1.5209    5.0836 H   0  0  0  0  0  0  0  0  0  0  0  0
   -1.9117   -0.7512    4.2804 H   0  0  0  0  0  0  0  0  0  0  0  0
   -1.3335   -2.1105    5.2765 H   0  0  0  0  0  0  0  0  0  0  0  0
    2.4191    4.1863    8.3193 H   0  0  0  0  0  0  0  0  0  0  0  0
    0.9631    3.5308    9.0309 H   0  0  0  0  0  0  0  0  0  0  0  0
    0.8587    4.5135    7.5645 H   0  0  0  0  0  0  0  0  0  0  0  0
    0.3632    3.3916    4.5145 H   0  0  0  0  0  0  0  0  0  0  0  0
    1.4752    3.9900    5.5831 H   0  0  0  0  0  0  0  0  0  0  0  0
    2.3596    2.5439    3.5010 H   0  0  0  0  0  0  0  0  0  0  0  0
    3.1780    2.7011    4.9990 H   0  0  0  0  0  0  0  0  0  0  0  0
    3.1641   -4.1626    0.3954 H   0  0  0  0  0  0  0  0  0  0  0  0
    2.9338   -3.8648   -2.0530 H   0  0  0  0  0  0  0  0  0  0  0  0
   -0.8556    0.5189    3.1001 H   0  0  0  0  0  0  0  0  0  0  0  0
  1  2  1  0
  1 34  1  0
  1 35  1  0
  1 36  1  0
  2  3  1  0
  3  4  2  0
  3  5  1  0
  5 33  2  0
  5  6  1  0
  6  7  2  0
  6 37  1  0
  7  8  1  0
  7 38  1  0
  8  9  1  0
  8 32  2  0
  9 10  1  0
  9 39  1  0
  9 40  1  0
 10 11  1  0
 11 12  1  0
 11 41  1  0
 11 42  1  0
 12 31  1  0
 12 13  1  0
 12 43  1  6
 13 14  1  0
 13 44  1  0
 13 45  1  0
 14 31  1  0
 14 15  1  0
 14 46  1  6
 15 25  1  0
 15 16  1  0
 15 47  1  1
 16 26  1  0
 16 17  1  0
 16 48  1  1
 17 18  1  0
 17 49  1  0
 17 50  1  0
 18 19  1  0
 18 51  1  0
 18 52  1  0
 19 20  1  0
 19 21  1  0
 19 69  1  6
 20 53  1  0
 20 54  1  0
 20 55  1  0
 21 31  1  0
 21 22  1  0
 21 56  1  6
 22 25  1  0
 22 23  1  0
 22 57  1  1
 23 24  1  0
 23 58  1  0
 23 59  1  0
 25 24  1  1
 25 26  1  0
 26 27  1  1
 26 29  1  0
 27 28  1  0
 28 60  1  0
 28 61  1  0
 28 62  1  0
 29 30  1  0
 29 63  1  0
 29 64  1  0
 31 30  1  1
 30 65  1  0
 30 66  1  0
 32 33  1  0
 32 67  1  0
 33 68  1  0
M  CHG  1  19   1
M  END
>  <i_m_ct_stereo_status>  (89) 
1

>  <s_m_source_file>  (89) 
/var/tmp/pbs.5076255.sched01/tmpn440o9cr/0yczfkg0t.sdf

>  <i_m_source_file_index>  (89) 
36

>  <i_lp_mmshare_version>  (89) 
48012

>  <i_f3d_flags>  (89) 
0

>  <s_epik_input>  (89) 
W0NIM11PQyg9TyljMVtjSF1bY0hdYyhbY0hdW2NIXTEpW0NIMl1PW0NIMl1bQ0BIXShbQ0gyXTIpW0NAXTMoW0NAQEhdMltDQEBIXTRbQ0BAXTU2NylbQ0BASF0oW0NAQEhdNVtDSDJdTzYpTihbQ0gzXSlbQ0gyXVtDSDJdW0NAQEhdNFtDQF03KE9bQ0gzXSlbQ0gyXVtDSDJdMw==

>  <s_epik_cmdline>  (89) 
J2VwaWtfcHl0aG9uJywgJy1waHQnLCAnMi4wJywgJy1waCcsICc3LjAnLCAnLXRuJywgJzgnLCAnLW1hJywgJzIwMCcsICctaW1hZScsICc8aW5maWxlLm1hZT4nLCAnLW9tYWUnLCAnPG91dGZpbGUubWFlPic=

>  <r_epik_Ionization_Penalty>  (89) 
0.00767755

>  <r_epik_Ionization_Penalty_Charging>  (89) 
0.00767755

>  <r_epik_Ionization_Penalty_Neutral>  (89) 
4.22197e-12

>  <r_epik_State_Penalty>  (89) 
0.0057479

>  <r_epik_Charging_Adjusted_Penalty>  (89) 
0.0134254

>  <i_epik_Tot_Q>  (89) 
1

>  <i_epik_Tot_abs_Q>  (89) 
1

>  <s_epik_Chemistry_Notes>  (89) 
This compound has an ester and may undergo hydrolysis at high or low pH.

>  <s_lp_Force_Field>  (89) 
OPLS3e

>  <r_lp_Energy>  (89) 
442.656

>  <b_lp_Chiralities_Consistent>  (89) 
1

>  <s_lp_Variant>  (89) 
29:0-1

>  <s_i_glide_gridfile>  (89) 
pfpi4k_grid

>  <i_i_glide_lignum>  (89) 
36

>  <i_i_glide_rotatable_bonds>  (89) 
7

>  <r_i_docking_score>  (89) 
-3.22857

>  <r_i_glide_ligand_efficiency>  (89) 
-0.0978355

>  <r_i_glide_ligand_efficiency_sa>  (89) 
-0.313811

>  <r_i_glide_ligand_efficiency_ln>  (89) 
-0.718018

>  <r_i_glide_gscore>  (89) 
-3.22857

>  <r_i_glide_lipo>  (89) 
-0.104831

>  <r_i_glide_hbond>  (89) 
-0.437402

>  <r_i_glide_metal>  (89) 
-0

>  <r_i_glide_rewards>  (89) 
-0.602771

>  <r_i_glide_evdw>  (89) 
-29.2321

>  <r_i_glide_ecoul>  (89) 
-7.19414

>  <r_i_glide_erotb>  (89) 
0.485919

>  <r_i_glide_esite>  (89) 
-0.0287598

>  <r_i_glide_emodel>  (89) 
-43.3359

>  <r_i_glide_energy>  (89) 
-36.4263

>  <r_i_glide_einternal>  (89) 
1.84066

>  <r_i_glide_intrahb_reward>  (89) 
-0

>  <i_i_glide_confnum>  (89) 
4

>  <i_i_glide_posenum>  (89) 
36

>  <r_i_glide_eff_state_penalty>  (89) 
0

>  <ligand_id>  (89) 
29

>  <original_smiles>  (89) 
COC(=O)c1ccc(COCC2CC3C4C5CCN(C)C6C7COC74C5(OC)CCC236)cc1

>  <smiles>  (89) 
[H]c1c([H])c(C([H])([H])OC([H])([H])C2([H])C([H])([H])C3([H])C4([H])C5([H])C([H])([H])C([H])([H])[N+]([H])(C([H])([H])[H])C6([H])C7([H])C([H])([H])OC47C5(OC([H])([H])[H])C([H])([H])C([H])([H])C236)c([H])c([H])c1C(=O)OC([H])([H])[H]

$$$$
29:0:1
     RDKit          3D

 69 75  0  0  1  0  0  0  0  0999 V2000
    2.5503   -3.1563   -4.0094 C   0  0  0  0  0  0  0  0  0  0  0  0
    3.0723   -2.6866   -2.7835 O   0  0  0  0  0  0  0  0  0  0  0  0
    4.3788   -2.8385   -2.5146 C   0  0  0  0  0  0  0  0  0  0  0  0
    5.1893   -3.3195   -3.3113 O   0  0  0  0  0  0  0  0  0  0  0  0
    4.7483   -2.3700   -1.1502 C   0  0  0  0  0  0  0  0  0  0  0  0
    3.8071   -1.7177   -0.3231 C   0  0  0  0  0  0  0  0  0  0  0  0
    4.1528   -1.2854    0.9633 C   0  0  0  0  0  0  0  0  0  0  0  0
    5.4567   -1.4876    1.4658 C   0  0  0  0  0  0  0  0  0  0  0  0
    5.8041   -1.0338    2.8708 C   0  0  0  0  0  0  0  0  0  0  0  0
    4.9178   -0.0294    3.3359 O   0  0  0  0  0  0  0  0  0  0  0  0
    4.8294    0.0642    4.7411 C   0  0  0  0  0  0  0  0  0  0  0  0
    4.0154    1.3311    5.0381 C   0  0  2  0  0  0  0  0  0  0  0  0
    3.7410    1.7966    6.5243 C   0  0  0  0  0  0  0  0  0  0  0  0
    2.4711    0.9692    6.4045 C   0  0  1  0  0  0  0  0  0  0  0  0
    0.9507    0.8677    7.0931 C   0  0  2  0  0  0  0  0  0  0  0  0
   -0.5738    1.6833    6.6726 C   0  0  2  0  0  0  0  0  0  0  0  0
   -1.6194    1.6241    5.4091 C   0  0  0  0  0  0  0  0  0  0  0  0
   -1.2229    1.0826    3.9033 C   0  0  0  0  0  0  0  0  0  0  0  0
    0.1921    0.8437    3.2482 N   0  0  1  0  0  0  0  0  0  0  0  0
    0.3606    1.4419    1.9160 C   0  0  0  0  0  0  0  0  0  0  0  0
    1.5282    0.4065    3.9205 C   0  0  2  0  0  0  0  0  0  0  0  0
    1.1189   -0.5420    4.9395 C   0  0  2  0  0  0  0  0  0  0  0  0
   -0.1047   -1.4479    5.0855 C   0  0  0  0  0  0  0  0  0  0  0  0
   -0.6150   -0.6268    6.1832 O   0  0  0  0  0  0  0  0  0  0  0  0
    0.4458    0.4022    5.9452 C   0  0  1  0  0  0  0  0  0  0  0  0
    0.4372    2.2249    5.9775 C   0  0  2  0  0  0  0  0  0  0  0  0
    1.0835    3.1534    6.9481 O   0  0  0  0  0  0  0  0  0  0  0  0
    0.3866    4.2853    7.5079 C   0  0  0  0  0  0  0  0  0  0  0  0
    0.6660    3.1752    4.7805 C   0  0  0  0  0  0  0  0  0  0  0  0
    2.0796    2.8277    4.3326 C   0  0  0  0  0  0  0  0  0  0  0  0
    2.4900    1.3976    4.7924 C   0  0  2  0  0  0  0  0  0  0  0  0
    6.4058   -2.1502    0.6529 C   0  0  0  0  0  0  0  0  0  0  0  0
    6.0555   -2.5815   -0.6458 C   0  0  0  0  0  0  0  0  0  0  0  0
    1.4865   -2.9337   -4.0800 H   0  0  0  0  0  0  0  0  0  0  0  0
    2.6806   -4.2354   -4.1001 H   0  0  0  0  0  0  0  0  0  0  0  0
    3.0540   -2.6756   -4.8471 H   0  0  0  0  0  0  0  0  0  0  0  0
    2.7934   -1.5397   -0.6583 H   0  0  0  0  0  0  0  0  0  0  0  0
    3.4053   -0.7937    1.5670 H   0  0  0  0  0  0  0  0  0  0  0  0
    5.7935   -1.9107    3.5191 H   0  0  0  0  0  0  0  0  0  0  0  0
    6.8156   -0.6339    2.8827 H   0  0  0  0  0  0  0  0  0  0  0  0
    4.3467   -0.8313    5.1259 H   0  0  0  0  0  0  0  0  0  0  0  0
    5.8267    0.1272    5.1792 H   0  0  0  0  0  0  0  0  0  0  0  0
    4.4993    2.1700    4.5466 H   0  0  0  0  0  0  0  0  0  0  0  0
    4.4583    1.3977    7.2375 H   0  0  0  0  0  0  0  0  0  0  0  0
    3.5799    2.8695    6.6536 H   0  0  0  0  0  0  0  0  0  0  0  0
    2.9013   -0.0034    6.6310 H   0  0  0  0  0  0  0  0  0  0  0  0
    0.8621    0.1515    7.8959 H   0  0  0  0  0  0  0  0  0  0  0  0
   -0.9498    2.2307    7.5256 H   0  0  0  0  0  0  0  0  0  0  0  0
   -2.5006    1.0733    5.7412 H   0  0  0  0  0  0  0  0  0  0  0  0
   -2.0134    2.6348    5.2867 H   0  0  0  0  0  0  0  0  0  0  0  0
   -1.7996    0.1813    3.7510 H   0  0  0  0  0  0  0  0  0  0  0  0
   -1.7391    1.7621    3.2342 H   0  0  0  0  0  0  0  0  0  0  0  0
    0.4469    2.5170    1.9614 H   0  0  0  0  0  0  0  0  0  0  0  0
   -0.4921    1.2094    1.2826 H   0  0  0  0  0  0  0  0  0  0  0  0
    1.2372    1.0568    1.4068 H   0  0  0  0  0  0  0  0  0  0  0  0
    2.1237   -0.1115    3.1866 H   0  0  0  0  0  0  0  0  0  0  0  0
    1.9200   -1.1704    5.3030 H   0  0  0  0  0  0  0  0  0  0  0  0
   -0.7165   -1.5231    4.1983 H   0  0  0  0  0  0  0  0  0  0  0  0
    0.1560   -2.4510    5.4181 H   0  0  0  0  0  0  0  0  0  0  0  0
    1.1154    5.0582    7.7590 H   0  0  0  0  0  0  0  0  0  0  0  0
   -0.1220    4.0311    8.4408 H   0  0  0  0  0  0  0  0  0  0  0  0
   -0.3511    4.7364    6.8382 H   0  0  0  0  0  0  0  0  0  0  0  0
   -0.0534    3.1668    3.9838 H   0  0  0  0  0  0  0  0  0  0  0  0
    0.6420    4.2362    5.0288 H   0  0  0  0  0  0  0  0  0  0  0  0
    2.2127    2.9727    3.2588 H   0  0  0  0  0  0  0  0  0  0  0  0
    2.7335    3.5773    4.7752 H   0  0  0  0  0  0  0  0  0  0  0  0
    7.4064   -2.3335    1.0306 H   0  0  0  0  0  0  0  0  0  0  0  0
    6.7908   -3.0953   -1.2546 H   0  0  0  0  0  0  0  0  0  0  0  0
   -0.0257   -0.0868    2.9240 H   0  0  0  0  0  0  0  0  0  0  0  0
  1  2  1  0
  1 34  1  0
  1 35  1  0
  1 36  1  0
  2  3  1  0
  3  4  2  0
  3  5  1  0
  5 33  2  0
  5  6  1  0
  6  7  2  0
  6 37  1  0
  7  8  1  0
  7 38  1  0
  8  9  1  0
  8 32  2  0
  9 10  1  0
  9 39  1  0
  9 40  1  0
 10 11  1  0
 11 12  1  0
 11 41  1  0
 11 42  1  0
 12 31  1  0
 12 13  1  0
 12 43  1  6
 13 14  1  0
 13 44  1  0
 13 45  1  0
 14 31  1  0
 14 15  1  0
 14 46  1  6
 15 25  1  0
 15 16  1  0
 15 47  1  1
 16 26  1  0
 16 17  1  0
 16 48  1  1
 17 18  1  0
 17 49  1  0
 17 50  1  0
 18 19  1  0
 18 51  1  0
 18 52  1  0
 19 20  1  0
 19 21  1  0
 19 69  1  6
 20 53  1  0
 20 54  1  0
 20 55  1  0
 21 31  1  0
 21 22  1  0
 21 56  1  6
 22 25  1  0
 22 23  1  0
 22 57  1  1
 23 24  1  0
 23 58  1  0
 23 59  1  0
 25 24  1  1
 25 26  1  0
 26 27  1  1
 26 29  1  0
 27 28  1  0
 28 60  1  0
 28 61  1  0
 28 62  1  0
 29 30  1  0
 29 63  1  0
 29 64  1  0
 31 30  1  1
 30 65  1  0
 30 66  1  0
 32 33  1  0
 32 67  1  0
 33 68  1  0
M  CHG  1  19   1
M  END
>  <i_m_ct_stereo_status>  (90) 
1

>  <s_m_source_file>  (90) 
/var/tmp/pbs.5076255.sched01/tmpn440o9cr/0yczfkg0t.sdf

>  <i_m_source_file_index>  (90) 
36

>  <i_lp_mmshare_version>  (90) 
48012

>  <i_f3d_flags>  (90) 
0

>  <s_epik_input>  (90) 
W0NIM11PQyg9TyljMVtjSF1bY0hdYyhbY0hdW2NIXTEpW0NIMl1PW0NIMl1bQ0BIXShbQ0gyXTIpW0NAXTMoW0NAQEhdMltDQEBIXTRbQ0BAXTU2NylbQ0BASF0oW0NAQEhdNVtDSDJdTzYpTihbQ0gzXSlbQ0gyXVtDSDJdW0NAQEhdNFtDQF03KE9bQ0gzXSlbQ0gyXVtDSDJdMw==

>  <s_epik_cmdline>  (90) 
J2VwaWtfcHl0aG9uJywgJy1waHQnLCAnMi4wJywgJy1waCcsICc3LjAnLCAnLXRuJywgJzgnLCAnLW1hJywgJzIwMCcsICctaW1hZScsICc8aW5maWxlLm1hZT4nLCAnLW9tYWUnLCAnPG91dGZpbGUubWFlPic=

>  <r_epik_Ionization_Penalty>  (90) 
0.00767755

>  <r_epik_Ionization_Penalty_Charging>  (90) 
0.00767755

>  <r_epik_Ionization_Penalty_Neutral>  (90) 
4.22197e-12

>  <r_epik_State_Penalty>  (90) 
0.0057479

>  <r_epik_Charging_Adjusted_Penalty>  (90) 
0.0134254

>  <i_epik_Tot_Q>  (90) 
1

>  <i_epik_Tot_abs_Q>  (90) 
1

>  <s_epik_Chemistry_Notes>  (90) 
This compound has an ester and may undergo hydrolysis at high or low pH.

>  <s_lp_Force_Field>  (90) 
OPLS3e

>  <r_lp_Energy>  (90) 
442.656

>  <b_lp_Chiralities_Consistent>  (90) 
1

>  <s_lp_Variant>  (90) 
29:0-1

>  <s_i_glide_gridfile>  (90) 
pfpi4k_grid

>  <i_i_glide_lignum>  (90) 
36

>  <i_i_glide_rotatable_bonds>  (90) 
7

>  <r_i_docking_score>  (90) 
-2.85604

>  <r_i_glide_ligand_efficiency>  (90) 
-0.0865468

>  <r_i_glide_ligand_efficiency_sa>  (90) 
-0.277602

>  <r_i_glide_ligand_efficiency_ln>  (90) 
-0.63517

>  <r_i_glide_gscore>  (90) 
-2.85604

>  <r_i_glide_lipo>  (90) 
-0.433002

>  <r_i_glide_hbond>  (90) 
0

>  <r_i_glide_metal>  (90) 
-0

>  <r_i_glide_rewards>  (90) 
-0.360664

>  <r_i_glide_evdw>  (90) 
-29.0776

>  <r_i_glide_ecoul>  (90) 
-7.10446

>  <r_i_glide_erotb>  (90) 
0.485919

>  <r_i_glide_esite>  (90) 
-0.0287493

>  <r_i_glide_emodel>  (90) 
-42.2019

>  <r_i_glide_energy>  (90) 
-36.1821

>  <r_i_glide_einternal>  (90) 
1.65499

>  <r_i_glide_intrahb_reward>  (90) 
-0

>  <i_i_glide_confnum>  (90) 
1

>  <i_i_glide_posenum>  (90) 
30

>  <r_i_glide_eff_state_penalty>  (90) 
0

>  <ligand_id>  (90) 
29

>  <original_smiles>  (90) 
COC(=O)c1ccc(COCC2CC3C4C5CCN(C)C6C7COC74C5(OC)CCC236)cc1

>  <smiles>  (90) 
[H]c1c([H])c(C([H])([H])OC([H])([H])C2([H])C([H])([H])C3([H])C4([H])C5([H])C([H])([H])C([H])([H])[N+]([H])(C([H])([H])[H])C6([H])C7([H])C([H])([H])OC47C5(OC([H])([H])[H])C([H])([H])C([H])([H])C236)c([H])c([H])c1C(=O)OC([H])([H])[H]

$$$$
29:0:2
     RDKit          3D

 69 75  0  0  1  0  0  0  0  0999 V2000
    2.4142   -2.7974   -3.9190 C   0  0  0  0  0  0  0  0  0  0  0  0
    2.8083   -2.7117   -2.5601 O   0  0  0  0  0  0  0  0  0  0  0  0
    3.8791   -1.9733   -2.2181 C   0  0  0  0  0  0  0  0  0  0  0  0
    4.5869   -1.3777   -3.0319 O   0  0  0  0  0  0  0  0  0  0  0  0
    4.1211   -1.9446   -0.7452 C   0  0  0  0  0  0  0  0  0  0  0  0
    3.4073   -2.7845    0.1433 C   0  0  0  0  0  0  0  0  0  0  0  0
    3.6424   -2.7252    1.5279 C   0  0  0  0  0  0  0  0  0  0  0  0
    4.5929   -1.8247    2.0533 C   0  0  0  0  0  0  0  0  0  0  0  0
    4.8272   -1.7540    3.5491 C   0  0  0  0  0  0  0  0  0  0  0  0
    4.6846   -0.4263    4.0257 O   0  0  0  0  0  0  0  0  0  0  0  0
    4.4652   -0.3331    5.4236 C   0  0  0  0  0  0  0  0  0  0  0  0
    3.9246    1.0760    5.6798 C   0  0  2  0  0  0  0  0  0  0  0  0
    3.4216    1.5109    7.1153 C   0  0  0  0  0  0  0  0  0  0  0  0
    2.0690    0.9968    6.6614 C   0  0  1  0  0  0  0  0  0  0  0  0
    0.4446    1.2079    7.0242 C   0  0  2  0  0  0  0  0  0  0  0  0
   -0.7480    2.3627    6.3817 C   0  0  2  0  0  0  0  0  0  0  0  0
   -1.4931    2.5921    4.9340 C   0  0  0  0  0  0  0  0  0  0  0  0
   -0.9012    2.0417    3.4873 C   0  0  0  0  0  0  0  0  0  0  0  0
    0.5423    1.5111    3.1207 N   0  0  1  0  0  0  0  0  0  0  0  0
    1.1270    2.1275    1.9087 C   0  0  0  0  0  0  0  0  0  0  0  0
    1.5874    0.7576    3.9983 C   0  0  2  0  0  0  0  0  0  0  0  0
    0.7769   -0.1230    4.8353 C   0  0  2  0  0  0  0  0  0  0  0  0
   -0.6032   -0.7316    4.6379 C   0  0  0  0  0  0  0  0  0  0  0  0
   -1.1589    0.1231    5.6824 O   0  0  0  0  0  0  0  0  0  0  0  0
    0.1184    0.9169    5.7594 C   0  0  1  0  0  0  0  0  0  0  0  0
    0.4819    2.6983    5.9617 C   0  0  2  0  0  0  0  0  0  0  0  0
    1.0847    3.4209    7.1298 O   0  0  0  0  0  0  0  0  0  0  0  0
    0.5183    4.6405    7.6363 C   0  0  0  0  0  0  0  0  0  0  0  0
    1.1497    3.6221    4.9167 C   0  0  0  0  0  0  0  0  0  0  0  0
    2.5274    2.9909    4.7366 C   0  0  0  0  0  0  0  0  0  0  0  0
    2.5233    1.4805    5.1330 C   0  0  2  0  0  0  0  0  0  0  0  0
    5.3146   -0.9909    1.1773 C   0  0  0  0  0  0  0  0  0  0  0  0
    5.0785   -1.0549   -0.2111 C   0  0  0  0  0  0  0  0  0  0  0  0
    1.5324   -3.4297   -4.0062 H   0  0  0  0  0  0  0  0  0  0  0  0
    3.2050   -3.2311   -4.5324 H   0  0  0  0  0  0  0  0  0  0  0  0
    2.1623   -1.8112   -4.3121 H   0  0  0  0  0  0  0  0  0  0  0  0
    2.6686   -3.4808   -0.2281 H   0  0  0  0  0  0  0  0  0  0  0  0
    3.0858   -3.3720    2.1921 H   0  0  0  0  0  0  0  0  0  0  0  0
    4.0985   -2.4028    4.0332 H   0  0  0  0  0  0  0  0  0  0  0  0
    5.8135   -2.1487    3.7892 H   0  0  0  0  0  0  0  0  0  0  0  0
    3.7565   -1.0927    5.7491 H   0  0  0  0  0  0  0  0  0  0  0  0
    5.3977   -0.5125    5.9618 H   0  0  0  0  0  0  0  0  0  0  0  0
    4.6746    1.8009    5.3603 H   0  0  0  0  0  0  0  0  0  0  0  0
    3.8731    0.9377    7.9271 H   0  0  0  0  0  0  0  0  0  0  0  0
    3.4684    2.5837    7.3130 H   0  0  0  0  0  0  0  0  0  0  0  0
    2.2148   -0.0605    6.8881 H   0  0  0  0  0  0  0  0  0  0  0  0
    0.0416    0.4850    7.7318 H   0  0  0  0  0  0  0  0  0  0  0  0
   -1.1978    2.9410    7.1827 H   0  0  0  0  0  0  0  0  0  0  0  0
   -2.5232    2.2398    5.0185 H   0  0  0  0  0  0  0  0  0  0  0  0
   -1.6246    3.6719    4.8198 H   0  0  0  0  0  0  0  0  0  0  0  0
   -1.6222    1.3060    3.1306 H   0  0  0  0  0  0  0  0  0  0  0  0
   -1.0922    2.8601    2.7900 H   0  0  0  0  0  0  0  0  0  0  0  0
    1.4263    3.1586    2.0752 H   0  0  0  0  0  0  0  0  0  0  0  0
    0.3874    2.1089    1.1076 H   0  0  0  0  0  0  0  0  0  0  0  0
    1.9977    1.5700    1.5616 H   0  0  0  0  0  0  0  0  0  0  0  0
    2.2155    0.1569    3.3410 H   0  0  0  0  0  0  0  0  0  0  0  0
    1.3519   -0.9289    5.2912 H   0  0  0  0  0  0  0  0  0  0  0  0
   -1.0254   -0.6037    3.6439 H   0  0  0  0  0  0  0  0  0  0  0  0
   -0.6491   -1.7843    4.9237 H   0  0  0  0  0  0  0  0  0  0  0  0
    1.3188    5.2218    8.0953 H   0  0  0  0  0  0  0  0  0  0  0  0
   -0.2143    4.4460    8.4219 H   0  0  0  0  0  0  0  0  0  0  0  0
    0.0442    5.2657    6.8753 H   0  0  0  0  0  0  0  0  0  0  0  0
    0.6300    3.8062    3.9873 H   0  0  0  0  0  0  0  0  0  0  0  0
    1.2908    4.6471    5.2516 H   0  0  0  0  0  0  0  0  0  0  0  0
    2.9178    3.1472    3.7317 H   0  0  0  0  0  0  0  0  0  0  0  0
    3.2110    3.5544    5.3721 H   0  0  0  0  0  0  0  0  0  0  0  0
    6.0407   -0.2937    1.5723 H   0  0  0  0  0  0  0  0  0  0  0  0
    5.6246   -0.3889   -0.8634 H   0  0  0  0  0  0  0  0  0  0  0  0
    0.2088    0.6762    2.6620 H   0  0  0  0  0  0  0  0  0  0  0  0
  1  2  1  0
  1 34  1  0
  1 35  1  0
  1 36  1  0
  2  3  1  0
  3  4  2  0
  3  5  1  0
  5 33  2  0
  5  6  1  0
  6  7  2  0
  6 37  1  0
  7  8  1  0
  7 38  1  0
  8  9  1  0
  8 32  2  0
  9 10  1  0
  9 39  1  0
  9 40  1  0
 10 11  1  0
 11 12  1  0
 11 41  1  0
 11 42  1  0
 12 31  1  0
 12 13  1  0
 12 43  1  6
 13 14  1  0
 13 44  1  0
 13 45  1  0
 14 31  1  0
 14 15  1  0
 14 46  1  6
 15 25  1  0
 15 16  1  0
 15 47  1  1
 16 26  1  0
 16 17  1  0
 16 48  1  1
 17 18  1  0
 17 49  1  0
 17 50  1  0
 18 19  1  0
 18 51  1  0
 18 52  1  0
 19 20  1  0
 19 21  1  0
 19 69  1  6
 20 53  1  0
 20 54  1  0
 20 55  1  0
 21 31  1  0
 21 22  1  0
 21 56  1  6
 22 25  1  0
 22 23  1  0
 22 57  1  1
 23 24  1  0
 23 58  1  0
 23 59  1  0
 25 24  1  1
 25 26  1  0
 26 27  1  1
 26 29  1  0
 27 28  1  0
 28 60  1  0
 28 61  1  0
 28 62  1  0
 29 30  1  0
 29 63  1  0
 29 64  1  0
 31 30  1  1
 30 65  1  0
 30 66  1  0
 32 33  1  0
 32 67  1  0
 33 68  1  0
M  CHG  1  19   1
M  END
>  <i_m_ct_stereo_status>  (91) 
1

>  <s_m_source_file>  (91) 
/var/tmp/pbs.5076255.sched01/tmpn440o9cr/0yczfkg0t.sdf

>  <i_m_source_file_index>  (91) 
36

>  <i_lp_mmshare_version>  (91) 
48012

>  <i_f3d_flags>  (91) 
0

>  <s_epik_input>  (91) 
W0NIM11PQyg9TyljMVtjSF1bY0hdYyhbY0hdW2NIXTEpW0NIMl1PW0NIMl1bQ0BIXShbQ0gyXTIpW0NAXTMoW0NAQEhdMltDQEBIXTRbQ0BAXTU2NylbQ0BASF0oW0NAQEhdNVtDSDJdTzYpTihbQ0gzXSlbQ0gyXVtDSDJdW0NAQEhdNFtDQF03KE9bQ0gzXSlbQ0gyXVtDSDJdMw==

>  <s_epik_cmdline>  (91) 
J2VwaWtfcHl0aG9uJywgJy1waHQnLCAnMi4wJywgJy1waCcsICc3LjAnLCAnLXRuJywgJzgnLCAnLW1hJywgJzIwMCcsICctaW1hZScsICc8aW5maWxlLm1hZT4nLCAnLW9tYWUnLCAnPG91dGZpbGUubWFlPic=

>  <r_epik_Ionization_Penalty>  (91) 
0.00767755

>  <r_epik_Ionization_Penalty_Charging>  (91) 
0.00767755

>  <r_epik_Ionization_Penalty_Neutral>  (91) 
4.22197e-12

>  <r_epik_State_Penalty>  (91) 
0.0057479

>  <r_epik_Charging_Adjusted_Penalty>  (91) 
0.0134254

>  <i_epik_Tot_Q>  (91) 
1

>  <i_epik_Tot_abs_Q>  (91) 
1

>  <s_epik_Chemistry_Notes>  (91) 
This compound has an ester and may undergo hydrolysis at high or low pH.

>  <s_lp_Force_Field>  (91) 
OPLS3e

>  <r_lp_Energy>  (91) 
442.656

>  <b_lp_Chiralities_Consistent>  (91) 
1

>  <s_lp_Variant>  (91) 
29:0-1

>  <s_i_glide_gridfile>  (91) 
pfpi4k_grid

>  <i_i_glide_lignum>  (91) 
36

>  <i_i_glide_rotatable_bonds>  (91) 
7

>  <r_i_docking_score>  (91) 
-2.51292

>  <r_i_glide_ligand_efficiency>  (91) 
-0.0761492

>  <r_i_glide_ligand_efficiency_sa>  (91) 
-0.244251

>  <r_i_glide_ligand_efficiency_ln>  (91) 
-0.558861

>  <r_i_glide_gscore>  (91) 
-2.51292

>  <r_i_glide_lipo>  (91) 
-0.382256

>  <r_i_glide_hbond>  (91) 
0

>  <r_i_glide_metal>  (91) 
-0

>  <r_i_glide_rewards>  (91) 
-0.309692

>  <r_i_glide_evdw>  (91) 
-27.4459

>  <r_i_glide_ecoul>  (91) 
-5.83514

>  <r_i_glide_erotb>  (91) 
0.485919

>  <r_i_glide_esite>  (91) 
-0.0593314

>  <r_i_glide_emodel>  (91) 
-38.6334

>  <r_i_glide_energy>  (91) 
-33.281

>  <r_i_glide_einternal>  (91) 
1.52286

>  <r_i_glide_intrahb_reward>  (91) 
-0

>  <i_i_glide_confnum>  (91) 
1

>  <i_i_glide_posenum>  (91) 
29

>  <r_i_glide_eff_state_penalty>  (91) 
0

>  <ligand_id>  (91) 
29

>  <original_smiles>  (91) 
COC(=O)c1ccc(COCC2CC3C4C5CCN(C)C6C7COC74C5(OC)CCC236)cc1

>  <smiles>  (91) 
[H]c1c([H])c(C([H])([H])OC([H])([H])C2([H])C([H])([H])C3([H])C4([H])C5([H])C([H])([H])C([H])([H])[N+]([H])(C([H])([H])[H])C6([H])C7([H])C([H])([H])OC47C5(OC([H])([H])[H])C([H])([H])C([H])([H])C236)c([H])c([H])c1C(=O)OC([H])([H])[H]

$$$$
30:0:0
     RDKit          3D

 22 24  0  0  1  0  0  0  0  0999 V2000
    5.6228   -3.3805   -1.9611 C   0  0  0  0  0  0  0  0  0  0  0  0
    5.8251   -3.9838   -0.6883 O   0  0  0  0  0  0  0  0  0  0  0  0
    4.7286   -4.6245   -0.1639 C   0  0  0  0  0  0  0  0  0  0  0  0
    4.8658   -5.7660    0.5030 N   0  0  0  0  0  0  0  0  0  0  0  0
    3.6215   -6.1742    0.8686 N   0  0  0  0  0  0  0  0  0  0  0  0
    3.1035   -7.2669    1.5452 C   0  0  0  0  0  0  0  0  0  0  0  0
    1.7470   -7.0514    1.5611 C   0  0  0  0  0  0  0  0  0  0  0  0
    0.6979   -7.8657    2.1455 C   0  0  0  0  0  0  0  0  0  0  0  0
    0.7573   -9.0564    2.8107 C   0  0  0  0  0  0  0  0  0  0  0  0
   -0.5859   -9.3838    3.1448 C   0  0  0  0  0  0  0  0  0  0  0  0
   -1.3644   -8.3705    2.6603 C   0  0  0  0  0  0  0  0  0  0  0  0
   -0.5905   -7.4237    2.0540 O   0  0  0  0  0  0  0  0  0  0  0  0
    1.4042   -5.8645    0.9059 N   0  0  0  0  0  0  0  0  0  0  0  0
    2.5463   -5.3713    0.5249 C   0  0  0  0  0  0  0  0  0  0  0  0
    3.1068   -3.9265   -0.3064 S   0  0  0  0  0  0  0  0  0  0  0  0
    6.5153   -2.8258   -2.2683 H   0  0  0  0  0  0  0  0  0  0  0  0
    4.7925   -2.6699   -1.9761 H   0  0  0  0  0  0  0  0  0  0  0  0
    5.4281   -4.1617   -2.7016 H   0  0  0  0  0  0  0  0  0  0  0  0
    3.7287   -8.0654    1.9280 H   0  0  0  0  0  0  0  0  0  0  0  0
    1.6527   -9.6188    3.0203 H   0  0  0  0  0  0  0  0  0  0  0  0
   -0.9426  -10.2537    3.6734 H   0  0  0  0  0  0  0  0  0  0  0  0
   -2.4293   -8.1841    2.6707 H   0  0  0  0  0  0  0  0  0  0  0  0
  1  2  1  0
  1 16  1  0
  1 17  1  0
  1 18  1  0
  2  3  1  0
  3 15  1  0
  3  4  2  0
  4  5  1  0
  5 14  1  0
  5  6  1  0
  6  7  2  0
  6 19  1  0
  7  8  1  0
  7 13  1  0
  8 12  1  0
  8  9  2  0
  9 10  1  0
  9 20  1  0
 10 11  2  0
 10 21  1  0
 11 12  1  0
 11 22  1  0
 13 14  2  0
 14 15  1  0
M  END
>  <i_m_ct_stereo_status>  (92) 
1

>  <s_m_source_file>  (92) 
/var/tmp/pbs.5076255.sched01/tmpn440o9cr/0yczfkg0t.sdf

>  <i_m_source_file_index>  (92) 
37

>  <i_lp_mmshare_version>  (92) 
48012

>  <i_f3d_flags>  (92) 
0

>  <s_epik_input>  (92) 
W0NIM11PYyhuMSlzYyhuMTIpbmMoW2NIXTIpLWMzW2NIXVtjSF1bY0hdbzM=

>  <s_epik_cmdline>  (92) 
J2VwaWtfcHl0aG9uJywgJy1waHQnLCAnMi4wJywgJy1waCcsICc3LjAnLCAnLXRuJywgJzgnLCAnLW1hJywgJzIwMCcsICctaW1hZScsICc8aW5maWxlLm1hZT4nLCAnLW9tYWUnLCAnPG91dGZpbGUubWFlPic=

>  <r_epik_Ionization_Penalty>  (92) 
0.00153498

>  <r_epik_Ionization_Penalty_Charging>  (92) 
0.00153498

>  <r_epik_Ionization_Penalty_Neutral>  (92) 
8.52892e-13

>  <r_epik_State_Penalty>  (92) 
0.00102995

>  <r_epik_Charging_Adjusted_Penalty>  (92) 
0.00256493

>  <i_epik_Tot_Q>  (92) 
0

>  <i_epik_Tot_abs_Q>  (92) 
0

>  <s_lp_Force_Field>  (92) 
OPLS3e

>  <r_lp_Energy>  (92) 
5.49191

>  <b_lp_Chiralities_Consistent>  (92) 
1

>  <s_lp_Variant>  (92) 
30:0-1

>  <s_i_glide_gridfile>  (92) 
pfpi4k_grid

>  <i_i_glide_lignum>  (92) 
37

>  <i_i_glide_rotatable_bonds>  (92) 
2

>  <r_i_docking_score>  (92) 
-3.78192

>  <r_i_glide_ligand_efficiency>  (92) 
-0.252128

>  <r_i_glide_ligand_efficiency_sa>  (92) 
-0.621801

>  <r_i_glide_ligand_efficiency_ln>  (92) 
-1.01992

>  <r_i_glide_gscore>  (92) 
-3.78192

>  <r_i_glide_lipo>  (92) 
-0.242828

>  <r_i_glide_hbond>  (92) 
-0.157883

>  <r_i_glide_metal>  (92) 
-0

>  <r_i_glide_rewards>  (92) 
-1.95897

>  <r_i_glide_evdw>  (92) 
-20.901

>  <r_i_glide_ecoul>  (92) 
-4.5035

>  <r_i_glide_erotb>  (92) 
0.344734

>  <r_i_glide_esite>  (92) 
-0.0463982

>  <r_i_glide_emodel>  (92) 
-30.097

>  <r_i_glide_energy>  (92) 
-25.4045

>  <r_i_glide_einternal>  (92) 
3.49447

>  <r_i_glide_intrahb_reward>  (92) 
-0

>  <i_i_glide_confnum>  (92) 
4

>  <i_i_glide_posenum>  (92) 
6

>  <r_i_glide_eff_state_penalty>  (92) 
0

>  <ligand_id>  (92) 
30

>  <original_smiles>  (92) 
COc1nn2cc(-c3ccco3)nc2s1

>  <smiles>  (92) 
[H]c1oc(-c2nc3sc(OC([H])([H])[H])nn3c2[H])c([H])c1[H]

$$$$
30:0:1
     RDKit          3D

 22 24  0  0  1  0  0  0  0  0999 V2000
    5.4362   -3.2640   -2.0807 C   0  0  0  0  0  0  0  0  0  0  0  0
    5.6915   -3.8205   -0.7966 O   0  0  0  0  0  0  0  0  0  0  0  0
    4.6369   -4.4972   -0.2366 C   0  0  0  0  0  0  0  0  0  0  0  0
    4.8331   -5.6386    0.4209 N   0  0  0  0  0  0  0  0  0  0  0  0
    3.6181   -6.0917    0.8251 N   0  0  0  0  0  0  0  0  0  0  0  0
    3.1666   -7.2098    1.5035 C   0  0  0  0  0  0  0  0  0  0  0  0
    1.8015   -7.0506    1.5749 C   0  0  0  0  0  0  0  0  0  0  0  0
    0.8165   -7.9262    2.1838 C   0  0  0  0  0  0  0  0  0  0  0  0
   -0.5500   -7.8591    2.2672 C   0  0  0  0  0  0  0  0  0  0  0  0
   -0.9616   -9.0235    2.9765 C   0  0  0  0  0  0  0  0  0  0  0  0
    0.1840   -9.7037    3.2810 C   0  0  0  0  0  0  0  0  0  0  0  0
    1.2777   -9.0459    2.8039 O   0  0  0  0  0  0  0  0  0  0  0  0
    1.3923   -5.8657    0.9516 N   0  0  0  0  0  0  0  0  0  0  0  0
    2.5010   -5.3246    0.5292 C   0  0  0  0  0  0  0  0  0  0  0  0
    2.9887   -3.8552   -0.3123 S   0  0  0  0  0  0  0  0  0  0  0  0
    6.2899   -2.6636   -2.4100 H   0  0  0  0  0  0  0  0  0  0  0  0
    4.5618   -2.6098   -2.1040 H   0  0  0  0  0  0  0  0  0  0  0  0
    5.2870   -4.0771   -2.7954 H   0  0  0  0  0  0  0  0  0  0  0  0
    3.8359   -7.9894    1.8487 H   0  0  0  0  0  0  0  0  0  0  0  0
   -1.1720   -7.0806    1.8577 H   0  0  0  0  0  0  0  0  0  0  0  0
   -1.9613   -9.3459    3.2449 H   0  0  0  0  0  0  0  0  0  0  0  0
    0.3926  -10.6262    3.8008 H   0  0  0  0  0  0  0  0  0  0  0  0
  1  2  1  0
  1 16  1  0
  1 17  1  0
  1 18  1  0
  2  3  1  0
  3 15  1  0
  3  4  2  0
  4  5  1  0
  5 14  1  0
  5  6  1  0
  6  7  2  0
  6 19  1  0
  7  8  1  0
  7 13  1  0
  8 12  1  0
  8  9  2  0
  9 10  1  0
  9 20  1  0
 10 11  2  0
 10 21  1  0
 11 12  1  0
 11 22  1  0
 13 14  2  0
 14 15  1  0
M  END
>  <i_m_ct_stereo_status>  (93) 
1

>  <s_m_source_file>  (93) 
/var/tmp/pbs.5076255.sched01/tmpn440o9cr/0yczfkg0t.sdf

>  <i_m_source_file_index>  (93) 
37

>  <i_lp_mmshare_version>  (93) 
48012

>  <i_f3d_flags>  (93) 
0

>  <s_epik_input>  (93) 
W0NIM11PYyhuMSlzYyhuMTIpbmMoW2NIXTIpLWMzW2NIXVtjSF1bY0hdbzM=

>  <s_epik_cmdline>  (93) 
J2VwaWtfcHl0aG9uJywgJy1waHQnLCAnMi4wJywgJy1waCcsICc3LjAnLCAnLXRuJywgJzgnLCAnLW1hJywgJzIwMCcsICctaW1hZScsICc8aW5maWxlLm1hZT4nLCAnLW9tYWUnLCAnPG91dGZpbGUubWFlPic=

>  <r_epik_Ionization_Penalty>  (93) 
0.00153498

>  <r_epik_Ionization_Penalty_Charging>  (93) 
0.00153498

>  <r_epik_Ionization_Penalty_Neutral>  (93) 
8.52892e-13

>  <r_epik_State_Penalty>  (93) 
0.00102995

>  <r_epik_Charging_Adjusted_Penalty>  (93) 
0.00256493

>  <i_epik_Tot_Q>  (93) 
0

>  <i_epik_Tot_abs_Q>  (93) 
0

>  <s_lp_Force_Field>  (93) 
OPLS3e

>  <r_lp_Energy>  (93) 
5.49191

>  <b_lp_Chiralities_Consistent>  (93) 
1

>  <s_lp_Variant>  (93) 
30:0-1

>  <s_i_glide_gridfile>  (93) 
pfpi4k_grid

>  <i_i_glide_lignum>  (93) 
37

>  <i_i_glide_rotatable_bonds>  (93) 
2

>  <r_i_docking_score>  (93) 
-3.59043

>  <r_i_glide_ligand_efficiency>  (93) 
-0.239362

>  <r_i_glide_ligand_efficiency_sa>  (93) 
-0.590317

>  <r_i_glide_ligand_efficiency_ln>  (93) 
-0.968279

>  <r_i_glide_gscore>  (93) 
-3.59043

>  <r_i_glide_lipo>  (93) 
-0.227946

>  <r_i_glide_hbond>  (93) 
-0.154905

>  <r_i_glide_metal>  (93) 
-0

>  <r_i_glide_rewards>  (93) 
-1.9508

>  <r_i_glide_evdw>  (93) 
-21.33

>  <r_i_glide_ecoul>  (93) 
-3.24576

>  <r_i_glide_erotb>  (93) 
0.344734

>  <r_i_glide_esite>  (93) 
-0.0481421

>  <r_i_glide_emodel>  (93) 
-29.0183

>  <r_i_glide_energy>  (93) 
-24.5758

>  <r_i_glide_einternal>  (93) 
3.37986

>  <r_i_glide_intrahb_reward>  (93) 
-0

>  <i_i_glide_confnum>  (93) 
3

>  <i_i_glide_posenum>  (93) 
20

>  <r_i_glide_eff_state_penalty>  (93) 
0

>  <ligand_id>  (93) 
30

>  <original_smiles>  (93) 
COc1nn2cc(-c3ccco3)nc2s1

>  <smiles>  (93) 
[H]c1oc(-c2nc3sc(OC([H])([H])[H])nn3c2[H])c([H])c1[H]

$$$$
30:0:2
     RDKit          3D

 22 24  0  0  1  0  0  0  0  0999 V2000
   -3.8197    3.3435    2.5996 C   0  0  0  0  0  0  0  0  0  0  0  0
   -3.1319    2.9457    3.7814 O   0  0  0  0  0  0  0  0  0  0  0  0
   -1.8542    2.4499    3.6333 C   0  0  0  0  0  0  0  0  0  0  0  0
   -1.3743    1.9320    2.5036 N   0  0  0  0  0  0  0  0  0  0  0  0
   -0.1014    1.5213    2.7501 N   0  0  0  0  0  0  0  0  0  0  0  0
    0.8950    0.9319    1.9974 C   0  0  0  0  0  0  0  0  0  0  0  0
    1.9503    0.7729    2.8601 C   0  0  0  0  0  0  0  0  0  0  0  0
    3.2615    0.1965    2.5959 C   0  0  0  0  0  0  0  0  0  0  0  0
    4.3210   -0.0966    3.4111 C   0  0  0  0  0  0  0  0  0  0  0  0
    5.3280   -0.6559    2.5678 C   0  0  0  0  0  0  0  0  0  0  0  0
    4.8014   -0.6577    1.3078 C   0  0  0  0  0  0  0  0  0  0  0  0
    3.5431   -0.1429    1.3083 O   0  0  0  0  0  0  0  0  0  0  0  0
    1.6353    1.2406    4.1401 N   0  0  0  0  0  0  0  0  0  0  0  0
    0.4158    1.6823    4.0257 C   0  0  0  0  0  0  0  0  0  0  0  0
   -0.8079    2.4264    5.0577 S   0  0  0  0  0  0  0  0  0  0  0  0
   -4.7952    3.7457    2.8707 H   0  0  0  0  0  0  0  0  0  0  0  0
   -3.9969    2.5235    1.9047 H   0  0  0  0  0  0  0  0  0  0  0  0
   -3.2794    4.1321    2.0794 H   0  0  0  0  0  0  0  0  0  0  0  0
    0.7573    0.6846    0.9517 H   0  0  0  0  0  0  0  0  0  0  0  0
    4.3541    0.0760    4.4789 H   0  0  0  0  0  0  0  0  0  0  0  0
    6.3122   -1.0168    2.8356 H   0  0  0  0  0  0  0  0  0  0  0  0
    5.1583   -0.9779    0.3423 H   0  0  0  0  0  0  0  0  0  0  0  0
  1  2  1  0
  1 16  1  0
  1 17  1  0
  1 18  1  0
  2  3  1  0
  3 15  1  0
  3  4  2  0
  4  5  1  0
  5 14  1  0
  5  6  1  0
  6  7  2  0
  6 19  1  0
  7  8  1  0
  7 13  1  0
  8 12  1  0
  8  9  2  0
  9 10  1  0
  9 20  1  0
 10 11  2  0
 10 21  1  0
 11 12  1  0
 11 22  1  0
 13 14  2  0
 14 15  1  0
M  END
>  <i_m_ct_stereo_status>  (94) 
1

>  <s_m_source_file>  (94) 
/var/tmp/pbs.5076255.sched01/tmpn440o9cr/0yczfkg0t.sdf

>  <i_m_source_file_index>  (94) 
37

>  <i_lp_mmshare_version>  (94) 
48012

>  <i_f3d_flags>  (94) 
0

>  <s_epik_input>  (94) 
W0NIM11PYyhuMSlzYyhuMTIpbmMoW2NIXTIpLWMzW2NIXVtjSF1bY0hdbzM=

>  <s_epik_cmdline>  (94) 
J2VwaWtfcHl0aG9uJywgJy1waHQnLCAnMi4wJywgJy1waCcsICc3LjAnLCAnLXRuJywgJzgnLCAnLW1hJywgJzIwMCcsICctaW1hZScsICc8aW5maWxlLm1hZT4nLCAnLW9tYWUnLCAnPG91dGZpbGUubWFlPic=

>  <r_epik_Ionization_Penalty>  (94) 
0.00153498

>  <r_epik_Ionization_Penalty_Charging>  (94) 
0.00153498

>  <r_epik_Ionization_Penalty_Neutral>  (94) 
8.52892e-13

>  <r_epik_State_Penalty>  (94) 
0.00102995

>  <r_epik_Charging_Adjusted_Penalty>  (94) 
0.00256493

>  <i_epik_Tot_Q>  (94) 
0

>  <i_epik_Tot_abs_Q>  (94) 
0

>  <s_lp_Force_Field>  (94) 
OPLS3e

>  <r_lp_Energy>  (94) 
5.49191

>  <b_lp_Chiralities_Consistent>  (94) 
1

>  <s_lp_Variant>  (94) 
30:0-1

>  <s_i_glide_gridfile>  (94) 
pfpi4k_grid

>  <i_i_glide_lignum>  (94) 
37

>  <i_i_glide_rotatable_bonds>  (94) 
2

>  <r_i_docking_score>  (94) 
-3.11874

>  <r_i_glide_ligand_efficiency>  (94) 
-0.207916

>  <r_i_glide_ligand_efficiency_sa>  (94) 
-0.512765

>  <r_i_glide_ligand_efficiency_ln>  (94) 
-0.841073

>  <r_i_glide_gscore>  (94) 
-3.11874

>  <r_i_glide_lipo>  (94) 
-0.411728

>  <r_i_glide_hbond>  (94) 
0

>  <r_i_glide_metal>  (94) 
-0

>  <r_i_glide_rewards>  (94) 
-1.90066

>  <r_i_glide_evdw>  (94) 
-21.3486

>  <r_i_glide_ecoul>  (94) 
-0.0812957

>  <r_i_glide_erotb>  (94) 
0.344734

>  <r_i_glide_esite>  (94) 
-0.0714615

>  <r_i_glide_emodel>  (94) 
-26.5322

>  <r_i_glide_energy>  (94) 
-21.4299

>  <r_i_glide_einternal>  (94) 
0.538662

>  <r_i_glide_intrahb_reward>  (94) 
-0

>  <i_i_glide_confnum>  (94) 
3

>  <i_i_glide_posenum>  (94) 
2

>  <r_i_glide_eff_state_penalty>  (94) 
0

>  <ligand_id>  (94) 
30

>  <original_smiles>  (94) 
COc1nn2cc(-c3ccco3)nc2s1

>  <smiles>  (94) 
[H]c1oc(-c2nc3sc(OC([H])([H])[H])nn3c2[H])c([H])c1[H]

$$$$
31:0:0
     RDKit          3D

 91 96  0  0  1  0  0  0  0  0999 V2000
   -1.0660    4.0980    4.9274 C   0  0  0  0  0  0  0  0  0  0  0  0
   -1.1143    2.5886    5.2685 C   0  0  0  0  0  0  0  0  0  0  0  0
   -2.0258    2.4373    6.5088 C   0  0  0  0  0  0  0  0  0  0  0  0
   -1.7866    1.8006    4.1180 C   0  0  0  0  0  0  0  0  0  0  0  0
   -0.9732    1.8003    2.8194 C   0  0  0  0  0  0  0  0  0  0  0  0
    0.4500    1.2528    2.9976 C   0  0  0  0  0  0  0  0  0  0  0  0
    1.2048    1.7227    4.2919 C   0  0  1  0  0  0  0  0  0  0  0  0
    1.7791    3.0878    3.7900 C   0  0  0  0  0  0  0  0  0  0  0  0
    0.2793    1.9258    5.5419 C   0  0  1  0  0  0  0  0  0  0  0  0
    1.0833    2.4832    6.7588 C   0  0  0  0  0  0  0  0  0  0  0  0
    2.3799    1.7000    7.1076 C   0  0  0  0  0  0  0  0  0  0  0  0
    3.2707    1.3107    5.8889 C   0  0  1  0  0  0  0  0  0  0  0  0
    4.1275    2.5476    5.4972 C   0  0  0  0  0  0  0  0  0  0  0  0
    4.3946    0.3081    6.2794 C   0  0  0  0  0  0  0  0  0  0  0  0
    3.9748   -1.1222    6.6057 C   0  0  0  0  0  0  0  0  0  0  0  0
    2.9907   -1.7942    5.6184 C   0  0  1  0  0  0  0  0  0  0  0  0
    2.3568   -2.9200    6.5106 C   0  0  0  0  0  0  0  0  0  0  0  0
    1.8575   -0.7536    5.2985 C   0  0  2  0  0  0  0  0  0  0  0  0
    0.7500   -1.5238    4.5557 C   0  0  0  0  0  0  0  0  0  0  0  0
    1.3066   -2.1656    3.3111 C   0  0  0  0  0  0  0  0  0  0  0  0
    2.5849   -2.5679    3.1581 C   0  0  0  0  0  0  0  0  0  0  0  0
    3.0490   -2.9716    1.7519 C   0  0  2  0  0  0  0  0  0  0  0  0
    3.3346   -4.4763    1.5539 C   0  0  0  0  0  0  0  0  0  0  0  0
    3.6737   -4.7791    0.0889 C   0  0  0  0  0  0  0  0  0  0  0  0
    4.8478   -3.9169   -0.4068 C   0  0  1  0  0  0  0  0  0  0  0  0
    5.0831   -4.2313   -1.7682 O   0  0  0  0  0  0  0  0  0  0  0  0
    4.6220   -2.3881   -0.2172 C   0  0  0  0  0  0  0  0  0  0  0  0
    5.9096   -1.6244   -0.5893 C   0  0  0  0  0  0  0  0  0  0  0  0
    3.5156   -1.8837   -1.1740 C   0  0  0  0  0  0  0  0  0  0  0  0
    4.2098   -2.0722    1.2661 C   0  0  2  0  0  0  0  0  0  0  0  0
    5.3470   -2.1022    2.3149 C   0  0  0  0  0  0  0  0  0  0  0  0
    4.8524   -1.6534    3.7116 C   0  0  0  0  0  0  0  0  0  0  0  0
    3.6425   -2.4498    4.2921 C   0  0  1  0  0  0  0  0  0  0  0  0
    4.2058   -3.8557    4.6542 C   0  0  0  0  0  0  0  0  0  0  0  0
    2.3404    0.6921    4.7591 C   0  0  1  0  0  0  0  0  0  0  0  0
   -2.0778    4.5053    4.8786 H   0  0  0  0  0  0  0  0  0  0  0  0
   -0.6149    4.3073    3.9590 H   0  0  0  0  0  0  0  0  0  0  0  0
   -0.5139    4.6672    5.6782 H   0  0  0  0  0  0  0  0  0  0  0  0
   -2.0575    1.4037    6.8562 H   0  0  0  0  0  0  0  0  0  0  0  0
   -3.0505    2.7385    6.2817 H   0  0  0  0  0  0  0  0  0  0  0  0
   -1.6876    3.0633    7.3373 H   0  0  0  0  0  0  0  0  0  0  0  0
   -1.9259    0.7632    4.4239 H   0  0  0  0  0  0  0  0  0  0  0  0
   -2.7836    2.1898    3.9190 H   0  0  0  0  0  0  0  0  0  0  0  0
   -1.4933    1.2026    2.0707 H   0  0  0  0  0  0  0  0  0  0  0  0
   -0.9388    2.8023    2.3997 H   0  0  0  0  0  0  0  0  0  0  0  0
    0.4376    0.1967    2.8229 H   0  0  0  0  0  0  0  0  0  0  0  0
    1.0176    1.5527    2.1163 H   0  0  0  0  0  0  0  0  0  0  0  0
    1.8653    3.8453    4.5585 H   0  0  0  0  0  0  0  0  0  0  0  0
    1.1585    3.5689    3.0377 H   0  0  0  0  0  0  0  0  0  0  0  0
    2.7397    2.9757    3.2935 H   0  0  0  0  0  0  0  0  0  0  0  0
   -0.0211    0.9324    5.8579 H   0  0  0  0  0  0  0  0  0  0  0  0
    1.3281    3.5334    6.6191 H   0  0  0  0  0  0  0  0  0  0  0  0
    0.4548    2.4597    7.6461 H   0  0  0  0  0  0  0  0  0  0  0  0
    2.9637    2.2924    7.8135 H   0  0  0  0  0  0  0  0  0  0  0  0
    2.1069    0.8149    7.6786 H   0  0  0  0  0  0  0  0  0  0  0  0
    4.5220    2.4462    4.4867 H   0  0  0  0  0  0  0  0  0  0  0  0
    4.9917    2.6716    6.1534 H   0  0  0  0  0  0  0  0  0  0  0  0
    3.6085    3.4958    5.5953 H   0  0  0  0  0  0  0  0  0  0  0  0
    5.1489    0.2833    5.4963 H   0  0  0  0  0  0  0  0  0  0  0  0
    4.9345    0.6856    7.1501 H   0  0  0  0  0  0  0  0  0  0  0  0
    4.8643   -1.7383    6.7347 H   0  0  0  0  0  0  0  0  0  0  0  0
    3.5169   -1.0760    7.5939 H   0  0  0  0  0  0  0  0  0  0  0  0
    1.7840   -3.6485    5.9370 H   0  0  0  0  0  0  0  0  0  0  0  0
    1.6891   -2.5118    7.2714 H   0  0  0  0  0  0  0  0  0  0  0  0
    3.1100   -3.4864    7.0596 H   0  0  0  0  0  0  0  0  0  0  0  0
    1.3869   -0.5649    6.2554 H   0  0  0  0  0  0  0  0  0  0  0  0
    0.3222   -2.3175    5.1636 H   0  0  0  0  0  0  0  0  0  0  0  0
   -0.1293   -0.9160    4.3749 H   0  0  0  0  0  0  0  0  0  0  0  0
    0.6142   -2.2333    2.4877 H   0  0  0  0  0  0  0  0  0  0  0  0
    2.2062   -2.7572    1.0977 H   0  0  0  0  0  0  0  0  0  0  0  0
    4.1783   -4.8143    2.1424 H   0  0  0  0  0  0  0  0  0  0  0  0
    2.4793   -5.0750    1.8672 H   0  0  0  0  0  0  0  0  0  0  0  0
    3.9332   -5.8321   -0.0173 H   0  0  0  0  0  0  0  0  0  0  0  0
    2.7968   -4.6245   -0.5357 H   0  0  0  0  0  0  0  0  0  0  0  0
    5.7363   -4.2059    0.1525 H   0  0  0  0  0  0  0  0  0  0  0  0
    4.3658   -4.7645   -2.0815 H   0  0  0  0  0  0  0  0  0  0  0  0
    5.8227   -0.5639   -0.3396 H   0  0  0  0  0  0  0  0  0  0  0  0
    6.1086   -1.7006   -1.6597 H   0  0  0  0  0  0  0  0  0  0  0  0
    6.7803   -2.0338   -0.0722 H   0  0  0  0  0  0  0  0  0  0  0  0
    3.2819   -0.8340   -0.9923 H   0  0  0  0  0  0  0  0  0  0  0  0
    2.5923   -2.4465   -1.0578 H   0  0  0  0  0  0  0  0  0  0  0  0
    3.8036   -1.9709   -2.2219 H   0  0  0  0  0  0  0  0  0  0  0  0
    3.8406   -1.0425    1.2723 H   0  0  0  0  0  0  0  0  0  0  0  0
    5.8119   -3.0870    2.3489 H   0  0  0  0  0  0  0  0  0  0  0  0
    6.1424   -1.4164    2.0285 H   0  0  0  0  0  0  0  0  0  0  0  0
    5.6893   -1.7037    4.4091 H   0  0  0  0  0  0  0  0  0  0  0  0
    4.6067   -0.6037    3.6028 H   0  0  0  0  0  0  0  0  0  0  0  0
    4.7210   -3.8527    5.6130 H   0  0  0  0  0  0  0  0  0  0  0  0
    4.9574   -4.2171    3.9646 H   0  0  0  0  0  0  0  0  0  0  0  0
    3.4213   -4.6115    4.6900 H   0  0  0  0  0  0  0  0  0  0  0  0
    2.9357    0.5362    3.8678 H   0  0  0  0  0  0  0  0  0  0  0  0
  1  2  1  0
  1 36  1  0
  1 37  1  0
  1 38  1  0
  2  9  1  0
  2  3  1  0
  2  4  1  0
  3 39  1  0
  3 40  1  0
  3 41  1  0
  4  5  1  0
  4 42  1  0
  4 43  1  0
  5  6  1  0
  5 44  1  0
  5 45  1  0
  6  7  1  0
  6 46  1  0
  6 47  1  0
  7 35  1  0
  7  8  1  6
  7  9  1  0
  8 48  1  0
  8 49  1  0
  8 50  1  0
  9 10  1  0
  9 51  1  1
 10 11  1  0
 10 52  1  0
 10 53  1  0
 11 12  1  0
 11 54  1  0
 11 55  1  0
 12 35  1  0
 12 13  1  6
 12 14  1  0
 13 56  1  0
 13 57  1  0
 13 58  1  0
 14 15  1  0
 14 59  1  0
 14 60  1  0
 15 16  1  0
 15 61  1  0
 15 62  1  0
 16 33  1  0
 16 17  1  1
 16 18  1  0
 17 63  1  0
 17 64  1  0
 17 65  1  0
 18 19  1  0
 18 35  1  0
 18 66  1  1
 19 20  1  0
 19 67  1  0
 19 68  1  0
 20 21  2  0
 20 69  1  0
 21 33  1  0
 21 22  1  0
 22 30  1  0
 22 23  1  0
 22 70  1  6
 23 24  1  0
 23 71  1  0
 23 72  1  0
 24 25  1  0
 24 73  1  0
 24 74  1  0
 25 26  1  0
 25 27  1  0
 25 75  1  1
 26 76  1  0
 27 28  1  0
 27 29  1  0
 27 30  1  0
 28 77  1  0
 28 78  1  0
 28 79  1  0
 29 80  1  0
 29 81  1  0
 29 82  1  0
 30 31  1  0
 30 83  1  6
 31 32  1  0
 31 84  1  0
 31 85  1  0
 32 33  1  0
 32 86  1  0
 32 87  1  0
 33 34  1  1
 34 88  1  0
 34 89  1  0
 34 90  1  0
 35 91  1  6
M  END
>  <i_m_ct_stereo_status>  (95) 
1

>  <s_m_source_file>  (95) 
/var/tmp/pbs.5076255.sched01/tmpn440o9cr/0yczfkg0t.sdf

>  <i_m_source_file_index>  (95) 
38

>  <i_lp_mmshare_version>  (95) 
48012

>  <i_f3d_flags>  (95) 
0

>  <s_epik_input>  (95) 
W0NIMl0xW0NIMl1bQ0gyXUMoW0NIM10pKFtDSDNdKVtDQEBIXShbQ0BdMTJbQ0gzXSlbQ0gyXVtDSDJdW0NAXTMoW0NIM10pW0NASF0yW0NAQEhdNFtDQF0oW0NIM10pKFtDSDJdW0NIMl0zKVtDQEBdNShbQ0gzXSlDKD1bQ0hdW0NIMl00KVtDQEhdNltDQEBIXShbQ0gyXVtDSDJdNSlDKFtDSDNdKShbQ0gzXSlbQ0BIXShbT0hdKVtDSDJdW0NIMl02

>  <s_epik_cmdline>  (95) 
J2VwaWtfcHl0aG9uJywgJy1waHQnLCAnMi4wJywgJy1waCcsICc3LjAnLCAnLXRuJywgJzgnLCAnLW1hJywgJzIwMCcsICctaW1hZScsICc8aW5maWxlLm1hZT4nLCAnLW9tYWUnLCAnPG91dGZpbGUubWFlPic=

>  <r_lp_tautomer_probability>  (95) 
1

>  <r_epik_Ionization_Penalty>  (95) 
1.88357e-06

>  <r_epik_Ionization_Penalty_Charging>  (95) 
0

>  <r_epik_Ionization_Penalty_Neutral>  (95) 
1.88357e-06

>  <r_epik_State_Penalty>  (95) 
-0

>  <r_epik_Charging_Adjusted_Penalty>  (95) 
0

>  <i_epik_Tot_Q>  (95) 
0

>  <i_epik_Tot_abs_Q>  (95) 
0

>  <s_lp_Force_Field>  (95) 
OPLS3e

>  <r_lp_Energy>  (95) 
128.857

>  <b_lp_Chiralities_Consistent>  (95) 
1

>  <s_lp_Variant>  (95) 
31:0-1

>  <s_i_glide_gridfile>  (95) 
pfpi4k_grid

>  <i_i_glide_lignum>  (95) 
38

>  <i_i_glide_rotatable_bonds>  (95) 
1

>  <r_i_docking_score>  (95) 
-2.81716

>  <r_i_glide_ligand_efficiency>  (95) 
-0.0804903

>  <r_i_glide_ligand_efficiency_sa>  (95) 
-0.263289

>  <r_i_glide_ligand_efficiency_ln>  (95) 
-0.618429

>  <r_i_glide_gscore>  (95) 
-2.81716

>  <r_i_glide_lipo>  (95) 
-0.254124

>  <r_i_glide_hbond>  (95) 
-0.32

>  <r_i_glide_metal>  (95) 
-0

>  <r_i_glide_rewards>  (95) 
-0.130856

>  <r_i_glide_evdw>  (95) 
-30.7451

>  <r_i_glide_ecoul>  (95) 
-3.83283

>  <r_i_glide_erotb>  (95) 
0

>  <r_i_glide_esite>  (95) 
0

>  <r_i_glide_emodel>  (95) 
-39.0572

>  <r_i_glide_energy>  (95) 
-34.5779

>  <r_i_glide_einternal>  (95) 
1.2543

>  <r_i_glide_intrahb_reward>  (95) 
-0

>  <i_i_glide_confnum>  (95) 
1

>  <i_i_glide_posenum>  (95) 
20

>  <r_i_glide_eff_state_penalty>  (95) 
0

>  <ligand_id>  (95) 
31

>  <original_smiles>  (95) 
CC1(C)CCCC2(C)C1CCC1(C)CCC3(C)C(CC=C4C5CCC(O)C(C)(C)C5CCC43C)C12

>  <smiles>  (95) 
[H]OC1([H])C([H])([H])C([H])([H])C2([H])C3=C([H])C([H])([H])C4([H])C5([H])C(C([H])([H])[H])(C([H])([H])C([H])([H])C6([H])C(C([H])([H])[H])(C([H])([H])[H])C([H])([H])C([H])([H])C([H])([H])C65C([H])([H])[H])C([H])([H])C([H])([H])C4(C([H])([H])[H])C3(C([H])([H])[H])C([H])([H])C([H])([H])C2([H])C1(C([H])([H])[H])C([H])([H])[H]

$$$$
31:0:1
     RDKit          3D

 91 96  0  0  1  0  0  0  0  0999 V2000
    0.6425  -10.6991    3.3703 C   0  0  0  0  0  0  0  0  0  0  0  0
    2.0842  -10.1372    3.4306 C   0  0  0  0  0  0  0  0  0  0  0  0
    3.0320  -11.3483    3.5810 C   0  0  0  0  0  0  0  0  0  0  0  0
    2.4521   -9.4389    2.0987 C   0  0  0  0  0  0  0  0  0  0  0  0
    1.6304   -8.1724    1.8333 C   0  0  0  0  0  0  0  0  0  0  0  0
    1.7438   -7.1288    2.9546 C   0  0  0  0  0  0  0  0  0  0  0  0
    1.6901   -7.6944    4.4158 C   0  0  1  0  0  0  0  0  0  0  0  0
    0.1414   -7.7693    4.6250 C   0  0  0  0  0  0  0  0  0  0  0  0
    2.3474   -9.1085    4.5854 C   0  0  1  0  0  0  0  0  0  0  0  0
    2.1696   -9.6411    6.0434 C   0  0  0  0  0  0  0  0  0  0  0  0
    2.5967   -8.6508    7.1642 C   0  0  0  0  0  0  0  0  0  0  0  0
    2.1220   -7.1771    6.9722 C   0  0  1  0  0  0  0  0  0  0  0  0
    0.6430   -7.0733    7.4497 C   0  0  0  0  0  0  0  0  0  0  0  0
    2.8085   -6.2058    7.9734 C   0  0  0  0  0  0  0  0  0  0  0  0
    4.2891   -5.9036    7.7551 C   0  0  0  0  0  0  0  0  0  0  0  0
    4.7183   -5.5546    6.3098 C   0  0  1  0  0  0  0  0  0  0  0  0
    6.2551   -5.8802    6.3410 C   0  0  0  0  0  0  0  0  0  0  0  0
    4.0367   -6.5972    5.3525 C   0  0  2  0  0  0  0  0  0  0  0  0
    4.6951   -6.4202    3.9693 C   0  0  0  0  0  0  0  0  0  0  0  0
    4.5262   -5.0028    3.4872 C   0  0  0  0  0  0  0  0  0  0  0  0
    4.4092   -3.9252    4.2906 C   0  0  0  0  0  0  0  0  0  0  0  0
    3.9877   -2.5930    3.6563 C   0  0  2  0  0  0  0  0  0  0  0  0
    5.0795   -1.5077    3.5998 C   0  0  0  0  0  0  0  0  0  0  0  0
    4.5961   -0.2672    2.8475 C   0  0  0  0  0  0  0  0  0  0  0  0
    3.3046    0.2867    3.4686 C   0  0  1  0  0  0  0  0  0  0  0  0
    2.9057    1.4161    2.7127 O   0  0  0  0  0  0  0  0  0  0  0  0
    2.1608   -0.7680    3.5526 C   0  0  0  0  0  0  0  0  0  0  0  0
    0.9590   -0.1642    4.3145 C   0  0  0  0  0  0  0  0  0  0  0  0
    1.6550   -1.1405    2.1342 C   0  0  0  0  0  0  0  0  0  0  0  0
    2.6677   -2.0693    4.2706 C   0  0  2  0  0  0  0  0  0  0  0  0
    2.8189   -1.9910    5.8073 C   0  0  0  0  0  0  0  0  0  0  0  0
    3.2036   -3.3581    6.4186 C   0  0  0  0  0  0  0  0  0  0  0  0
    4.4934   -4.0224    5.8435 C   0  0  1  0  0  0  0  0  0  0  0  0
    5.6752   -3.1590    6.3760 C   0  0  0  0  0  0  0  0  0  0  0  0
    2.4299   -6.7425    5.4746 C   0  0  1  0  0  0  0  0  0  0  0  0
    0.5758  -11.5033    2.6327 H   0  0  0  0  0  0  0  0  0  0  0  0
   -0.1001   -9.9635    3.0713 H   0  0  0  0  0  0  0  0  0  0  0  0
    0.3253  -11.1101    4.3315 H   0  0  0  0  0  0  0  0  0  0  0  0
    4.0695  -11.0359    3.7041 H   0  0  0  0  0  0  0  0  0  0  0  0
    2.9920  -11.9910    2.6978 H   0  0  0  0  0  0  0  0  0  0  0  0
    2.7621  -11.9718    4.4362 H   0  0  0  0  0  0  0  0  0  0  0  0
    3.5075   -9.1636    2.1122 H   0  0  0  0  0  0  0  0  0  0  0  0
    2.3404  -10.1314    1.2632 H   0  0  0  0  0  0  0  0  0  0  0  0
    1.9584   -7.7218    0.8976 H   0  0  0  0  0  0  0  0  0  0  0  0
    0.5872   -8.4311    1.6708 H   0  0  0  0  0  0  0  0  0  0  0  0
    2.5729   -6.4868    2.7358 H   0  0  0  0  0  0  0  0  0  0  0  0
    0.9377   -6.4109    2.8126 H   0  0  0  0  0  0  0  0  0  0  0  0
   -0.1826   -8.5764    5.2702 H   0  0  0  0  0  0  0  0  0  0  0  0
   -0.4098   -7.9546    3.7075 H   0  0  0  0  0  0  0  0  0  0  0  0
   -0.2708   -6.8330    4.9925 H   0  0  0  0  0  0  0  0  0  0  0  0
    3.4173   -8.9575    4.4896 H   0  0  0  0  0  0  0  0  0  0  0  0
    1.1473   -9.9708    6.2215 H   0  0  0  0  0  0  0  0  0  0  0  0
    2.7696  -10.5413    6.1724 H   0  0  0  0  0  0  0  0  0  0  0  0
    2.2371   -9.0351    8.1189 H   0  0  0  0  0  0  0  0  0  0  0  0
    3.6801   -8.6936    7.2632 H   0  0  0  0  0  0  0  0  0  0  0  0
    0.1528   -6.1798    7.0626 H   0  0  0  0  0  0  0  0  0  0  0  0
    0.5699   -7.0086    8.5374 H   0  0  0  0  0  0  0  0  0  0  0  0
    0.0473   -7.9500    7.2166 H   0  0  0  0  0  0  0  0  0  0  0  0
    2.2598   -5.2670    8.0052 H   0  0  0  0  0  0  0  0  0  0  0  0
    2.7126   -6.5983    8.9874 H   0  0  0  0  0  0  0  0  0  0  0  0
    4.6041   -5.1213    8.4446 H   0  0  0  0  0  0  0  0  0  0  0  0
    4.8222   -6.7970    8.0828 H   0  0  0  0  0  0  0  0  0  0  0  0
    6.7920   -5.5027    5.4703 H   0  0  0  0  0  0  0  0  0  0  0  0
    6.4458   -6.9540    6.3936 H   0  0  0  0  0  0  0  0  0  0  0  0
    6.7512   -5.4554    7.2151 H   0  0  0  0  0  0  0  0  0  0  0  0
    4.4393   -7.5558    5.6613 H   0  0  0  0  0  0  0  0  0  0  0  0
    5.7619   -6.6290    3.9913 H   0  0  0  0  0  0  0  0  0  0  0  0
    4.3669   -7.1684    3.2577 H   0  0  0  0  0  0  0  0  0  0  0  0
    4.4403   -4.8986    2.4145 H   0  0  0  0  0  0  0  0  0  0  0  0
    3.7769   -2.8272    2.6126 H   0  0  0  0  0  0  0  0  0  0  0  0
    5.3775   -1.1720    4.5863 H   0  0  0  0  0  0  0  0  0  0  0  0
    5.9725   -1.9002    3.1143 H   0  0  0  0  0  0  0  0  0  0  0  0
    5.3735    0.4944    2.8846 H   0  0  0  0  0  0  0  0  0  0  0  0
    4.4479   -0.4988    1.7926 H   0  0  0  0  0  0  0  0  0  0  0  0
    3.5409    0.6346    4.4754 H   0  0  0  0  0  0  0  0  0  0  0  0
    3.6453    1.9978    2.6112 H   0  0  0  0  0  0  0  0  0  0  0  0
    0.1935   -0.9165    4.5139 H   0  0  0  0  0  0  0  0  0  0  0  0
    0.4878    0.6384    3.7429 H   0  0  0  0  0  0  0  0  0  0  0  0
    1.2688    0.2686    5.2664 H   0  0  0  0  0  0  0  0  0  0  0  0
    0.9079   -1.9317    2.1797 H   0  0  0  0  0  0  0  0  0  0  0  0
    2.4475   -1.4875    1.4718 H   0  0  0  0  0  0  0  0  0  0  0  0
    1.1855   -0.2903    1.6372 H   0  0  0  0  0  0  0  0  0  0  0  0
    1.9084   -2.8356    4.0938 H   0  0  0  0  0  0  0  0  0  0  0  0
    3.5271   -1.2126    6.0838 H   0  0  0  0  0  0  0  0  0  0  0  0
    1.8763   -1.6954    6.2616 H   0  0  0  0  0  0  0  0  0  0  0  0
    3.3022   -3.2415    7.4972 H   0  0  0  0  0  0  0  0  0  0  0  0
    2.3422   -3.9939    6.2592 H   0  0  0  0  0  0  0  0  0  0  0  0
    5.9385   -3.4208    7.3987 H   0  0  0  0  0  0  0  0  0  0  0  0
    5.4545   -2.1016    6.4329 H   0  0  0  0  0  0  0  0  0  0  0  0
    6.5654   -3.2627    5.7563 H   0  0  0  0  0  0  0  0  0  0  0  0
    1.9934   -5.7646    5.3029 H   0  0  0  0  0  0  0  0  0  0  0  0
  1  2  1  0
  1 36  1  0
  1 37  1  0
  1 38  1  0
  2  9  1  0
  2  3  1  0
  2  4  1  0
  3 39  1  0
  3 40  1  0
  3 41  1  0
  4  5  1  0
  4 42  1  0
  4 43  1  0
  5  6  1  0
  5 44  1  0
  5 45  1  0
  6  7  1  0
  6 46  1  0
  6 47  1  0
  7 35  1  0
  7  8  1  1
  7  9  1  0
  8 48  1  0
  8 49  1  0
  8 50  1  0
  9 10  1  0
  9 51  1  1
 10 11  1  0
 10 52  1  0
 10 53  1  0
 11 12  1  0
 11 54  1  0
 11 55  1  0
 12 35  1  0
 12 13  1  6
 12 14  1  0
 13 56  1  0
 13 57  1  0
 13 58  1  0
 14 15  1  0
 14 59  1  0
 14 60  1  0
 15 16  1  0
 15 61  1  0
 15 62  1  0
 16 33  1  0
 16 17  1  1
 16 18  1  0
 17 63  1  0
 17 64  1  0
 17 65  1  0
 18 19  1  0
 18 35  1  0
 18 66  1  1
 19 20  1  0
 19 67  1  0
 19 68  1  0
 20 21  2  0
 20 69  1  0
 21 33  1  0
 21 22  1  0
 22 30  1  0
 22 23  1  0
 22 70  1  6
 23 24  1  0
 23 71  1  0
 23 72  1  0
 24 25  1  0
 24 73  1  0
 24 74  1  0
 25 26  1  0
 25 27  1  0
 25 75  1  1
 26 76  1  0
 27 28  1  0
 27 29  1  0
 27 30  1  0
 28 77  1  0
 28 78  1  0
 28 79  1  0
 29 80  1  0
 29 81  1  0
 29 82  1  0
 30 31  1  0
 30 83  1  1
 31 32  1  0
 31 84  1  0
 31 85  1  0
 32 33  1  0
 32 86  1  0
 32 87  1  0
 33 34  1  1
 34 88  1  0
 34 89  1  0
 34 90  1  0
 35 91  1  1
M  END
>  <i_m_ct_stereo_status>  (96) 
1

>  <s_m_source_file>  (96) 
/var/tmp/pbs.5076255.sched01/tmpn440o9cr/0yczfkg0t.sdf

>  <i_m_source_file_index>  (96) 
38

>  <i_lp_mmshare_version>  (96) 
48012

>  <i_f3d_flags>  (96) 
0

>  <s_epik_input>  (96) 
W0NIMl0xW0NIMl1bQ0gyXUMoW0NIM10pKFtDSDNdKVtDQEBIXShbQ0BdMTJbQ0gzXSlbQ0gyXVtDSDJdW0NAXTMoW0NIM10pW0NASF0yW0NAQEhdNFtDQF0oW0NIM10pKFtDSDJdW0NIMl0zKVtDQEBdNShbQ0gzXSlDKD1bQ0hdW0NIMl00KVtDQEhdNltDQEBIXShbQ0gyXVtDSDJdNSlDKFtDSDNdKShbQ0gzXSlbQ0BIXShbT0hdKVtDSDJdW0NIMl02

>  <s_epik_cmdline>  (96) 
J2VwaWtfcHl0aG9uJywgJy1waHQnLCAnMi4wJywgJy1waCcsICc3LjAnLCAnLXRuJywgJzgnLCAnLW1hJywgJzIwMCcsICctaW1hZScsICc8aW5maWxlLm1hZT4nLCAnLW9tYWUnLCAnPG91dGZpbGUubWFlPic=

>  <r_lp_tautomer_probability>  (96) 
1

>  <r_epik_Ionization_Penalty>  (96) 
1.88357e-06

>  <r_epik_Ionization_Penalty_Charging>  (96) 
0

>  <r_epik_Ionization_Penalty_Neutral>  (96) 
1.88357e-06

>  <r_epik_State_Penalty>  (96) 
-0

>  <r_epik_Charging_Adjusted_Penalty>  (96) 
0

>  <i_epik_Tot_Q>  (96) 
0

>  <i_epik_Tot_abs_Q>  (96) 
0

>  <s_lp_Force_Field>  (96) 
OPLS3e

>  <r_lp_Energy>  (96) 
128.857

>  <b_lp_Chiralities_Consistent>  (96) 
1

>  <s_lp_Variant>  (96) 
31:0-1

>  <s_i_glide_gridfile>  (96) 
pfpi4k_grid

>  <i_i_glide_lignum>  (96) 
38

>  <i_i_glide_rotatable_bonds>  (96) 
1

>  <r_i_docking_score>  (96) 
-2.38496

>  <r_i_glide_ligand_efficiency>  (96) 
-0.0681417

>  <r_i_glide_ligand_efficiency_sa>  (96) 
-0.222896

>  <r_i_glide_ligand_efficiency_ln>  (96) 
-0.523551

>  <r_i_glide_gscore>  (96) 
-2.38496

>  <r_i_glide_lipo>  (96) 
-0.282341

>  <r_i_glide_hbond>  (96) 
-0.32

>  <r_i_glide_metal>  (96) 
-0

>  <r_i_glide_rewards>  (96) 
-0.130856

>  <r_i_glide_evdw>  (96) 
-26.4773

>  <r_i_glide_ecoul>  (96) 
-2.18598

>  <r_i_glide_erotb>  (96) 
0

>  <r_i_glide_esite>  (96) 
0

>  <r_i_glide_emodel>  (96) 
-33.068

>  <r_i_glide_energy>  (96) 
-28.6633

>  <r_i_glide_einternal>  (96) 
0.462758

>  <r_i_glide_intrahb_reward>  (96) 
-0

>  <i_i_glide_confnum>  (96) 
2

>  <i_i_glide_posenum>  (96) 
8

>  <r_i_glide_eff_state_penalty>  (96) 
0

>  <ligand_id>  (96) 
31

>  <original_smiles>  (96) 
CC1(C)CCCC2(C)C1CCC1(C)CCC3(C)C(CC=C4C5CCC(O)C(C)(C)C5CCC43C)C12

>  <smiles>  (96) 
[H]OC1([H])C([H])([H])C([H])([H])C2([H])C3=C([H])C([H])([H])C4([H])C5([H])C(C([H])([H])[H])(C([H])([H])C([H])([H])C6([H])C(C([H])([H])[H])(C([H])([H])[H])C([H])([H])C([H])([H])C([H])([H])C65C([H])([H])[H])C([H])([H])C([H])([H])C4(C([H])([H])[H])C3(C([H])([H])[H])C([H])([H])C([H])([H])C2([H])C1(C([H])([H])[H])C([H])([H])[H]

$$$$
31:0:2
     RDKit          3D

 91 96  0  0  1  0  0  0  0  0999 V2000
    4.5873   -9.4394    1.3619 C   0  0  0  0  0  0  0  0  0  0  0  0
    4.8815   -8.7903    2.7336 C   0  0  0  0  0  0  0  0  0  0  0  0
    5.3888   -9.9154    3.6642 C   0  0  0  0  0  0  0  0  0  0  0  0
    6.0278   -7.7587    2.6041 C   0  0  0  0  0  0  0  0  0  0  0  0
    5.6548   -6.5422    1.7516 C   0  0  0  0  0  0  0  0  0  0  0  0
    4.4069   -5.8046    2.2663 C   0  0  0  0  0  0  0  0  0  0  0  0
    3.2156   -6.7143    2.7312 C   0  0  1  0  0  0  0  0  0  0  0  0
    2.5180   -6.9692    1.3578 C   0  0  0  0  0  0  0  0  0  0  0  0
    3.6563   -8.0644    3.3949 C   0  0  1  0  0  0  0  0  0  0  0  0
    2.4215   -8.9585    3.7379 C   0  0  0  0  0  0  0  0  0  0  0  0
    1.2953   -8.2474    4.5391 C   0  0  0  0  0  0  0  0  0  0  0  0
    0.9192   -6.8198    4.0357 C   0  0  1  0  0  0  0  0  0  0  0  0
   -0.0423   -6.9742    2.8208 C   0  0  0  0  0  0  0  0  0  0  0  0
   -0.0052   -6.0719    5.0376 C   0  0  0  0  0  0  0  0  0  0  0  0
    0.6156   -5.5962    6.3485 C   0  0  0  0  0  0  0  0  0  0  0  0
    1.9750   -4.8619    6.2409 C   0  0  1  0  0  0  0  0  0  0  0  0
    2.5583   -5.0489    7.6870 C   0  0  0  0  0  0  0  0  0  0  0  0
    2.8803   -5.6878    5.2588 C   0  0  2  0  0  0  0  0  0  0  0  0
    4.3065   -5.1158    5.3869 C   0  0  0  0  0  0  0  0  0  0  0  0
    4.3114   -3.6437    5.0692 C   0  0  0  0  0  0  0  0  0  0  0  0
    3.2624   -2.8135    5.2523 C   0  0  0  0  0  0  0  0  0  0  0  0
    3.3418   -1.4048    4.6477 C   0  0  2  0  0  0  0  0  0  0  0  0
    3.4821   -0.2456    5.6595 C   0  0  0  0  0  0  0  0  0  0  0  0
    3.6723    1.0953    4.9393 C   0  0  0  0  0  0  0  0  0  0  0  0
    2.5268    1.3586    3.9468 C   0  0  1  0  0  0  0  0  0  0  0  0
    2.7481    2.6111    3.3225 O   0  0  0  0  0  0  0  0  0  0  0  0
    2.3335    0.2179    2.9028 C   0  0  0  0  0  0  0  0  0  0  0  0
    1.0692    0.5150    2.0676 C   0  0  0  0  0  0  0  0  0  0  0  0
    3.5293    0.1460    1.9178 C   0  0  0  0  0  0  0  0  0  0  0  0
    2.1988   -1.1687    3.6298 C   0  0  2  0  0  0  0  0  0  0  0  0
    0.8415   -1.4621    4.3106 C   0  0  0  0  0  0  0  0  0  0  0  0
    0.7802   -2.9018    4.8750 C   0  0  0  0  0  0  0  0  0  0  0  0
    1.9144   -3.2876    5.8761 C   0  0  1  0  0  0  0  0  0  0  0  0
    1.6120   -2.4837    7.1743 C   0  0  0  0  0  0  0  0  0  0  0  0
    2.2602   -5.9988    3.7984 C   0  0  1  0  0  0  0  0  0  0  0  0
    5.4340  -10.0464    1.0303 H   0  0  0  0  0  0  0  0  0  0  0  0
    4.4100   -8.7218    0.5644 H   0  0  0  0  0  0  0  0  0  0  0  0
    3.7162  -10.0962    1.4090 H   0  0  0  0  0  0  0  0  0  0  0  0
    5.5511   -9.5539    4.6807 H   0  0  0  0  0  0  0  0  0  0  0  0
    6.3373  -10.3221    3.3066 H   0  0  0  0  0  0  0  0  0  0  0  0
    4.6851  -10.7496    3.7106 H   0  0  0  0  0  0  0  0  0  0  0  0
    6.3038   -7.4025    3.5974 H   0  0  0  0  0  0  0  0  0  0  0  0
    6.9234   -8.2332    2.1978 H   0  0  0  0  0  0  0  0  0  0  0  0
    6.4946   -5.8486    1.7391 H   0  0  0  0  0  0  0  0  0  0  0  0
    5.5181   -6.8350    0.7135 H   0  0  0  0  0  0  0  0  0  0  0  0
    4.7171   -5.0554    2.9650 H   0  0  0  0  0  0  0  0  0  0  0  0
    4.0694   -5.1478    1.4643 H   0  0  0  0  0  0  0  0  0  0  0  0
    2.0377   -7.9365    1.2765 H   0  0  0  0  0  0  0  0  0  0  0  0
    3.2107   -6.9627    0.5212 H   0  0  0  0  0  0  0  0  0  0  0  0
    1.8023   -6.1927    1.1045 H   0  0  0  0  0  0  0  0  0  0  0  0
    4.0700   -7.8037    4.3639 H   0  0  0  0  0  0  0  0  0  0  0  0
    1.9968   -9.4062    2.8421 H   0  0  0  0  0  0  0  0  0  0  0  0
    2.7471   -9.8039    4.3408 H   0  0  0  0  0  0  0  0  0  0  0  0
    0.4097   -8.8848    4.5346 H   0  0  0  0  0  0  0  0  0  0  0  0
    1.5846   -8.2180    5.5870 H   0  0  0  0  0  0  0  0  0  0  0  0
   -0.0828   -6.0620    2.2289 H   0  0  0  0  0  0  0  0  0  0  0  0
   -1.0671   -7.1840    3.1350 H   0  0  0  0  0  0  0  0  0  0  0  0
    0.1906   -7.8146    2.1743 H   0  0  0  0  0  0  0  0  0  0  0  0
   -0.4614   -5.2199    4.5401 H   0  0  0  0  0  0  0  0  0  0  0  0
   -0.8529   -6.7097    5.2978 H   0  0  0  0  0  0  0  0  0  0  0  0
   -0.1046   -4.9838    6.8884 H   0  0  0  0  0  0  0  0  0  0  0  0
    0.7391   -6.4916    6.9578 H   0  0  0  0  0  0  0  0  0  0  0  0
    3.4280   -4.4217    7.8831 H   0  0  0  0  0  0  0  0  0  0  0  0
    2.8597   -6.0811    7.8762 H   0  0  0  0  0  0  0  0  0  0  0  0
    1.8299   -4.8137    8.4634 H   0  0  0  0  0  0  0  0  0  0  0  0
    2.9907   -6.6526    5.7396 H   0  0  0  0  0  0  0  0  0  0  0  0
    4.7051   -5.2295    6.3925 H   0  0  0  0  0  0  0  0  0  0  0  0
    5.0343   -5.6883    4.8236 H   0  0  0  0  0  0  0  0  0  0  0  0
    5.2213   -3.2836    4.6113 H   0  0  0  0  0  0  0  0  0  0  0  0
    4.2716   -1.3905    4.0798 H   0  0  0  0  0  0  0  0  0  0  0  0
    2.6020   -0.1423    6.2836 H   0  0  0  0  0  0  0  0  0  0  0  0
    4.3194   -0.4290    6.3336 H   0  0  0  0  0  0  0  0  0  0  0  0
    3.7041    1.9011    5.6723 H   0  0  0  0  0  0  0  0  0  0  0  0
    4.6349    1.1152    4.4305 H   0  0  0  0  0  0  0  0  0  0  0  0
    1.6065    1.4564    4.5210 H   0  0  0  0  0  0  0  0  0  0  0  0
    3.5658    2.5764    2.8454 H   0  0  0  0  0  0  0  0  0  0  0  0
    0.8237   -0.3259    1.4171 H   0  0  0  0  0  0  0  0  0  0  0  0
    1.2091    1.3875    1.4245 H   0  0  0  0  0  0  0  0  0  0  0  0
    0.2032    0.7240    2.6969 H   0  0  0  0  0  0  0  0  0  0  0  0
    3.4368   -0.6968    1.2315 H   0  0  0  0  0  0  0  0  0  0  0  0
    4.4882    0.0481    2.4254 H   0  0  0  0  0  0  0  0  0  0  0  0
    3.5915    1.0425    1.3009 H   0  0  0  0  0  0  0  0  0  0  0  0
    2.2982   -1.9316    2.8537 H   0  0  0  0  0  0  0  0  0  0  0  0
    0.6283   -0.7182    5.0763 H   0  0  0  0  0  0  0  0  0  0  0  0
    0.0328   -1.3739    3.5877 H   0  0  0  0  0  0  0  0  0  0  0  0
   -0.1910   -3.0496    5.3476 H   0  0  0  0  0  0  0  0  0  0  0  0
    0.7977   -3.5495    4.0075 H   0  0  0  0  0  0  0  0  0  0  0  0
    0.8513   -2.9686    7.7823 H   0  0  0  0  0  0  0  0  0  0  0  0
    1.2051   -1.4980    6.9936 H   0  0  0  0  0  0  0  0  0  0  0  0
    2.5028   -2.3481    7.7870 H   0  0  0  0  0  0  0  0  0  0  0  0
    2.0095   -5.0514    3.3354 H   0  0  0  0  0  0  0  0  0  0  0  0
  1  2  1  0
  1 36  1  0
  1 37  1  0
  1 38  1  0
  2  9  1  0
  2  3  1  0
  2  4  1  0
  3 39  1  0
  3 40  1  0
  3 41  1  0
  4  5  1  0
  4 42  1  0
  4 43  1  0
  5  6  1  0
  5 44  1  0
  5 45  1  0
  6  7  1  0
  6 46  1  0
  6 47  1  0
  7 35  1  0
  7  8  1  6
  7  9  1  0
  8 48  1  0
  8 49  1  0
  8 50  1  0
  9 10  1  0
  9 51  1  1
 10 11  1  0
 10 52  1  0
 10 53  1  0
 11 12  1  0
 11 54  1  0
 11 55  1  0
 12 35  1  0
 12 13  1  6
 12 14  1  0
 13 56  1  0
 13 57  1  0
 13 58  1  0
 14 15  1  0
 14 59  1  0
 14 60  1  0
 15 16  1  0
 15 61  1  0
 15 62  1  0
 16 33  1  0
 16 17  1  1
 16 18  1  0
 17 63  1  0
 17 64  1  0
 17 65  1  0
 18 19  1  0
 18 35  1  0
 18 66  1  1
 19 20  1  0
 19 67  1  0
 19 68  1  0
 20 21  2  0
 20 69  1  0
 21 33  1  0
 21 22  1  0
 22 30  1  0
 22 23  1  0
 22 70  1  6
 23 24  1  0
 23 71  1  0
 23 72  1  0
 24 25  1  0
 24 73  1  0
 24 74  1  0
 25 26  1  0
 25 27  1  0
 25 75  1  1
 26 76  1  0
 27 28  1  0
 27 29  1  0
 27 30  1  0
 28 77  1  0
 28 78  1  0
 28 79  1  0
 29 80  1  0
 29 81  1  0
 29 82  1  0
 30 31  1  0
 30 83  1  6
 31 32  1  0
 31 84  1  0
 31 85  1  0
 32 33  1  0
 32 86  1  0
 32 87  1  0
 33 34  1  1
 34 88  1  0
 34 89  1  0
 34 90  1  0
 35 91  1  6
M  END
>  <i_m_ct_stereo_status>  (97) 
1

>  <s_m_source_file>  (97) 
/var/tmp/pbs.5076255.sched01/tmpn440o9cr/0yczfkg0t.sdf

>  <i_m_source_file_index>  (97) 
38

>  <i_lp_mmshare_version>  (97) 
48012

>  <i_f3d_flags>  (97) 
0

>  <s_epik_input>  (97) 
W0NIMl0xW0NIMl1bQ0gyXUMoW0NIM10pKFtDSDNdKVtDQEBIXShbQ0BdMTJbQ0gzXSlbQ0gyXVtDSDJdW0NAXTMoW0NIM10pW0NASF0yW0NAQEhdNFtDQF0oW0NIM10pKFtDSDJdW0NIMl0zKVtDQEBdNShbQ0gzXSlDKD1bQ0hdW0NIMl00KVtDQEhdNltDQEBIXShbQ0gyXVtDSDJdNSlDKFtDSDNdKShbQ0gzXSlbQ0BIXShbT0hdKVtDSDJdW0NIMl02

>  <s_epik_cmdline>  (97) 
J2VwaWtfcHl0aG9uJywgJy1waHQnLCAnMi4wJywgJy1waCcsICc3LjAnLCAnLXRuJywgJzgnLCAnLW1hJywgJzIwMCcsICctaW1hZScsICc8aW5maWxlLm1hZT4nLCAnLW9tYWUnLCAnPG91dGZpbGUubWFlPic=

>  <r_lp_tautomer_probability>  (97) 
1

>  <r_epik_Ionization_Penalty>  (97) 
1.88357e-06

>  <r_epik_Ionization_Penalty_Charging>  (97) 
0

>  <r_epik_Ionization_Penalty_Neutral>  (97) 
1.88357e-06

>  <r_epik_State_Penalty>  (97) 
-0

>  <r_epik_Charging_Adjusted_Penalty>  (97) 
0

>  <i_epik_Tot_Q>  (97) 
0

>  <i_epik_Tot_abs_Q>  (97) 
0

>  <s_lp_Force_Field>  (97) 
OPLS3e

>  <r_lp_Energy>  (97) 
128.857

>  <b_lp_Chiralities_Consistent>  (97) 
1

>  <s_lp_Variant>  (97) 
31:0-1

>  <s_i_glide_gridfile>  (97) 
pfpi4k_grid

>  <i_i_glide_lignum>  (97) 
38

>  <i_i_glide_rotatable_bonds>  (97) 
1

>  <r_i_docking_score>  (97) 
-2.22526

>  <r_i_glide_ligand_efficiency>  (97) 
-0.0635789

>  <r_i_glide_ligand_efficiency_sa>  (97) 
-0.207971

>  <r_i_glide_ligand_efficiency_ln>  (97) 
-0.488494

>  <r_i_glide_gscore>  (97) 
-2.22526

>  <r_i_glide_lipo>  (97) 
-0.13152

>  <r_i_glide_hbond>  (97) 
-0.297833

>  <r_i_glide_metal>  (97) 
-0

>  <r_i_glide_rewards>  (97) 
-0.130856

>  <r_i_glide_evdw>  (97) 
-27.488

>  <r_i_glide_ecoul>  (97) 
-1.93768

>  <r_i_glide_erotb>  (97) 
0

>  <r_i_glide_esite>  (97) 
0

>  <r_i_glide_emodel>  (97) 
-33.7355

>  <r_i_glide_energy>  (97) 
-29.4257

>  <r_i_glide_einternal>  (97) 
0.00682451

>  <r_i_glide_intrahb_reward>  (97) 
-0

>  <i_i_glide_confnum>  (97) 
1

>  <i_i_glide_posenum>  (97) 
17

>  <r_i_glide_eff_state_penalty>  (97) 
0

>  <ligand_id>  (97) 
31

>  <original_smiles>  (97) 
CC1(C)CCCC2(C)C1CCC1(C)CCC3(C)C(CC=C4C5CCC(O)C(C)(C)C5CCC43C)C12

>  <smiles>  (97) 
[H]OC1([H])C([H])([H])C([H])([H])C2([H])C3=C([H])C([H])([H])C4([H])C5([H])C(C([H])([H])[H])(C([H])([H])C([H])([H])C6([H])C(C([H])([H])[H])(C([H])([H])[H])C([H])([H])C([H])([H])C([H])([H])C65C([H])([H])[H])C([H])([H])C([H])([H])C4(C([H])([H])[H])C3(C([H])([H])[H])C([H])([H])C([H])([H])C2([H])C1(C([H])([H])[H])C([H])([H])[H]

$$$$
32:0:0
     RDKit          3D

 68 73  0  0  1  0  0  0  0  0999 V2000
    4.0897   -7.9618    0.8904 C   0  0  0  0  0  0  0  0  0  0  0  0
    4.9239   -6.7030    1.1604 C   0  0  0  0  0  0  0  0  0  0  0  0
    4.5058   -5.5298    0.2600 C   0  0  0  0  0  0  0  0  0  0  0  0
    5.2836   -4.2620    0.5695 C   0  0  0  0  0  0  0  0  0  0  0  0
    4.7831   -3.0319    0.7352 C   0  0  0  0  0  0  0  0  0  0  0  0
    5.5595   -1.9782    1.1403 O   0  0  0  0  0  0  0  0  0  0  0  0
    4.8228   -1.0078    1.6737 C   0  0  0  0  0  0  0  0  0  0  0  0
    5.2014    0.0745    2.0992 O   0  0  0  0  0  0  0  0  0  0  0  0
    3.3757   -1.4639    1.7375 C   0  0  1  0  0  0  0  0  0  0  0  0
    2.3727   -0.3156    1.6393 C   0  0  0  0  0  0  0  0  0  0  0  0
    1.7594    0.3289    2.6596 C   0  0  0  0  0  0  0  0  0  0  0  0
    0.6945    1.3563    2.6188 C   0  0  1  0  0  0  0  0  0  0  0  0
   -0.4419    0.5334    3.2168 C   0  0  1  0  0  0  0  0  0  0  0  0
    0.2954   -0.1298    4.4595 C   0  0  2  0  0  0  0  0  0  0  0  0
   -0.2974    0.7828    5.5646 C   0  0  1  0  0  0  0  0  0  0  0  0
    0.4557    0.7131    6.7844 O   0  0  0  0  0  0  0  0  0  0  0  0
   -0.1744    1.1858    7.9710 C   0  0  0  0  0  0  0  0  0  0  0  0
   -0.4004    2.1301    4.7222 C   0  0  2  0  0  0  0  0  0  0  0  0
   -0.8761    3.3563    5.5406 C   0  0  0  0  0  0  0  0  0  0  0  0
   -2.2404    3.2063    6.2774 C   0  0  0  0  0  0  0  0  0  0  0  0
   -1.4188    1.5998    3.7035 C   0  0  1  0  0  0  0  0  0  0  0  0
   -1.9959    2.5599    2.6346 C   0  0  0  0  0  0  0  0  0  0  0  0
   -2.9921    3.4049    3.1737 O   0  0  0  0  0  0  0  0  0  0  0  0
    0.9606    2.3336    3.8296 C   0  0  2  0  0  0  0  0  0  0  0  0
    1.2675    3.6596    3.4253 O   0  0  0  0  0  0  0  0  0  0  0  0
    2.0655    1.6471    4.6485 C   0  0  2  0  0  0  0  0  0  0  0  0
    3.4613    1.3437    4.3310 N   0  0  1  0  0  0  0  0  0  0  0  0
    4.4804    2.0256    5.1721 C   0  0  0  0  0  0  0  0  0  0  0  0
    3.1600   -0.0297    4.7989 C   0  0  0  0  0  0  0  0  0  0  0  0
    1.7941    0.2086    4.1609 C   0  0  2  0  0  0  0  0  0  0  0  0
    3.3422   -2.5715    0.6891 C   0  0  1  0  0  0  0  0  0  0  0  0
    3.1180   -2.0560   -0.6069 O   0  0  0  0  0  0  0  0  0  0  0  0
    4.3663   -8.7766    1.5631 H   0  0  0  0  0  0  0  0  0  0  0  0
    4.2273   -8.3216   -0.1305 H   0  0  0  0  0  0  0  0  0  0  0  0
    3.0267   -7.7646    1.0369 H   0  0  0  0  0  0  0  0  0  0  0  0
    4.8172   -6.4300    2.2117 H   0  0  0  0  0  0  0  0  0  0  0  0
    5.9783   -6.9401    1.0117 H   0  0  0  0  0  0  0  0  0  0  0  0
    4.6923   -5.7750   -0.7816 H   0  0  0  0  0  0  0  0  0  0  0  0
    3.4347   -5.3560    0.3642 H   0  0  0  0  0  0  0  0  0  0  0  0
    6.3558   -4.3789    0.6796 H   0  0  0  0  0  0  0  0  0  0  0  0
    3.2348   -1.9399    2.7045 H   0  0  0  0  0  0  0  0  0  0  0  0
    2.1187    0.0135    0.6447 H   0  0  0  0  0  0  0  0  0  0  0  0
    0.4971    1.7816    1.6361 H   0  0  0  0  0  0  0  0  0  0  0  0
   -0.8513   -0.1717    2.5158 H   0  0  0  0  0  0  0  0  0  0  0  0
    0.0895   -1.1974    4.5985 H   0  0  0  0  0  0  0  0  0  0  0  0
   -1.2795    0.3932    5.8027 H   0  0  0  0  0  0  0  0  0  0  0  0
    0.4667    1.0363    8.8375 H   0  0  0  0  0  0  0  0  0  0  0  0
   -1.0974    0.6429    8.1360 H   0  0  0  0  0  0  0  0  0  0  0  0
   -0.4194    2.2455    7.9313 H   0  0  0  0  0  0  0  0  0  0  0  0
   -0.0743    3.6056    6.2274 H   0  0  0  0  0  0  0  0  0  0  0  0
   -0.9364    4.2121    4.8825 H   0  0  0  0  0  0  0  0  0  0  0  0
   -2.4536    4.1175    6.8295 H   0  0  0  0  0  0  0  0  0  0  0  0
   -2.2959    2.3885    7.0017 H   0  0  0  0  0  0  0  0  0  0  0  0
   -3.0683    3.0592    5.5903 H   0  0  0  0  0  0  0  0  0  0  0  0
   -2.2866    1.1309    4.1625 H   0  0  0  0  0  0  0  0  0  0  0  0
   -1.2440    3.1986    2.1824 H   0  0  0  0  0  0  0  0  0  0  0  0
   -2.4766    1.9864    1.8413 H   0  0  0  0  0  0  0  0  0  0  0  0
   -3.4576    3.8189    2.4701 H   0  0  0  0  0  0  0  0  0  0  0  0
    0.7656    3.8809    2.6452 H   0  0  0  0  0  0  0  0  0  0  0  0
    2.0286    1.8864    5.7035 H   0  0  0  0  0  0  0  0  0  0  0  0
    4.2755    1.9360    6.2606 H   0  0  0  0  0  0  0  0  0  0  0  0
    4.5693    3.1008    4.9263 H   0  0  0  0  0  0  0  0  0  0  0  0
    5.4621    1.5448    5.0110 H   0  0  0  0  0  0  0  0  0  0  0  0
    3.7927   -0.7834    4.3520 H   0  0  0  0  0  0  0  0  0  0  0  0
    3.1163   -0.1541    5.8858 H   0  0  0  0  0  0  0  0  0  0  0  0
    2.6358   -3.3452    0.9642 H   0  0  0  0  0  0  0  0  0  0  0  0
    2.2271   -1.7281   -0.6693 H   0  0  0  0  0  0  0  0  0  0  0  0
    3.6585    1.3927    3.3413 H   0  0  0  0  0  0  0  0  0  0  0  0
  1  2  1  0
  1 33  1  0
  1 34  1  0
  1 35  1  0
  2  3  1  0
  2 36  1  0
  2 37  1  0
  3  4  1  0
  3 38  1  0
  3 39  1  0
  4  5  2  3
  4 40  1  0
  5 31  1  0
  5  6  1  0
  6  7  1  0
  7  8  2  0
  7  9  1  0
  9 10  1  0
  9 31  1  0
  9 41  1  1
 10 11  2  3
 10 42  1  0
 11 30  1  0
 11 12  1  0
 12 24  1  0
 12 13  1  0
 12 43  1  6
 13 21  1  0
 13 14  1  0
 13 44  1  6
 14 30  1  0
 14 15  1  0
 14 45  1  1
 15 16  1  0
 15 18  1  0
 15 46  1  1
 16 17  1  0
 17 47  1  0
 17 48  1  0
 17 49  1  0
 18 19  1  1
 18 21  1  0
 18 24  1  0
 19 20  1  0
 19 50  1  0
 19 51  1  0
 20 52  1  0
 20 53  1  0
 20 54  1  0
 21 22  1  0
 21 55  1  1
 22 23  1  0
 22 56  1  0
 22 57  1  0
 23 58  1  0
 24 25  1  6
 24 26  1  0
 25 59  1  0
 26 30  1  0
 26 27  1  0
 26 60  1  1
 27 28  1  0
 27 29  1  0
 27 68  1  6
 28 61  1  0
 28 62  1  0
 28 63  1  0
 30 29  1  6
 29 64  1  0
 29 65  1  0
 31 32  1  0
 31 66  1  1
 32 67  1  0
M  CHG  1  27   1
M  END
>  <i_m_ct_stereo_status>  (98) 
1

>  <s_m_source_file>  (98) 
/var/tmp/pbs.5076255.sched01/tmpn440o9cr/0yczfkg0t.sdf

>  <i_m_source_file_index>  (98) 
39

>  <i_lp_mmshare_version>  (98) 
48012

>  <i_f3d_flags>  (98) 
0

>  <s_epik_input>  (98) 
W0NIM11bQ0gyXVtDSDJdL1tDSF09QzFcT0MoPU8pW0NASF0oW0NASF0xW09IXSkvW0NIXT1DMlxbQ0BASF0oW0NASF0zW0NASF00W0NAQF0yNTYpW0NAXShbT0hdKShbQ0BASF01TihbQ0gzXSlbQ0gyXTYpW0NAXShbQ0gyXVtDSDNdKShbQ0BASF00T1tDSDNdKVtDQEhdM1tDSDJdW09IXQ==

>  <s_epik_cmdline>  (98) 
J2VwaWtfcHl0aG9uJywgJy1waHQnLCAnMi4wJywgJy1waCcsICc3LjAnLCAnLXRuJywgJzgnLCAnLW1hJywgJzIwMCcsICctaW1hZScsICc8aW5maWxlLm1hZT4nLCAnLW9tYWUnLCAnPG91dGZpbGUubWFlPic=

>  <r_epik_Ionization_Penalty>  (98) 
0.0352056

>  <r_epik_Ionization_Penalty_Charging>  (98) 
0.0236441

>  <r_epik_Ionization_Penalty_Neutral>  (98) 
0.0115614

>  <r_epik_State_Penalty>  (98) 
0.0277706

>  <r_epik_Charging_Adjusted_Penalty>  (98) 
0.0514147

>  <i_epik_Tot_Q>  (98) 
1

>  <i_epik_Tot_abs_Q>  (98) 
1

>  <s_lp_Force_Field>  (98) 
OPLS3e

>  <r_lp_Energy>  (98) 
118.832

>  <b_lp_Chiralities_Consistent>  (98) 
1

>  <s_lp_Variant>  (98) 
32:0-1

>  <s_i_glide_gridfile>  (98) 
pfpi4k_grid

>  <i_i_glide_lignum>  (98) 
39

>  <i_i_glide_rotatable_bonds>  (98) 
9

>  <r_i_docking_score>  (98) 
-3.86247

>  <r_i_glide_ligand_efficiency>  (98) 
-0.120702

>  <r_i_glide_ligand_efficiency_sa>  (98) 
-0.383206

>  <r_i_glide_ligand_efficiency_ln>  (98) 
-0.864913

>  <r_i_glide_gscore>  (98) 
-3.86247

>  <r_i_glide_lipo>  (98) 
-0.328864

>  <r_i_glide_hbond>  (98) 
-0.316741

>  <r_i_glide_metal>  (98) 
-0

>  <r_i_glide_rewards>  (98) 
-0.990284

>  <r_i_glide_evdw>  (98) 
-19.308

>  <r_i_glide_ecoul>  (98) 
-10.3823

>  <r_i_glide_erotb>  (98) 
0.301145

>  <r_i_glide_esite>  (98) 
-0.00498145

>  <r_i_glide_emodel>  (98) 
-41.3372

>  <r_i_glide_energy>  (98) 
-29.6903

>  <r_i_glide_einternal>  (98) 
3.37115

>  <r_i_glide_intrahb_reward>  (98) 
-0.5

>  <i_i_glide_confnum>  (98) 
2

>  <i_i_glide_posenum>  (98) 
35

>  <r_i_glide_eff_state_penalty>  (98) 
0

>  <ligand_id>  (98) 
32

>  <original_smiles>  (98) 
CCCC=C1OC(=O)C(C=C2C3C4C5C(OC)C(CC)(C4CO)C3(O)C3N(C)CC253)C1O

>  <smiles>  (98) 
[H]OC([H])([H])C1([H])C2([H])C3([H])C(=C([H])C4([H])C(=O)OC(=C([H])C([H])([H])C([H])([H])C([H])([H])[H])C4([H])O[H])C45C2([H])C([H])(OC([H])([H])[H])C1(C([H])([H])C([H])([H])[H])C3(O[H])C4([H])[N+]([H])(C([H])([H])[H])C5([H])[H]

$$$$
32:0:1
     RDKit          3D

 68 73  0  0  1  0  0  0  0  0999 V2000
    4.2248   -7.6665    0.9578 C   0  0  0  0  0  0  0  0  0  0  0  0
    5.0004   -6.4700    1.5016 C   0  0  0  0  0  0  0  0  0  0  0  0
    4.8213   -5.2417    0.5998 C   0  0  0  0  0  0  0  0  0  0  0  0
    5.4215   -4.0161    1.2181 C   0  0  0  0  0  0  0  0  0  0  0  0
    4.8209   -2.8340    1.3624 C   0  0  0  0  0  0  0  0  0  0  0  0
    5.4637   -1.8573    2.0370 O   0  0  0  0  0  0  0  0  0  0  0  0
    4.6047   -0.9095    2.4333 C   0  0  0  0  0  0  0  0  0  0  0  0
    4.8970    0.1520    2.9453 O   0  0  0  0  0  0  0  0  0  0  0  0
    3.1767   -1.3745    2.1578 C   0  0  1  0  0  0  0  0  0  0  0  0
    2.1721   -0.2408    1.9591 C   0  0  0  0  0  0  0  0  0  0  0  0
    1.4940    0.4819    2.8838 C   0  0  0  0  0  0  0  0  0  0  0  0
    0.4355    1.5042    2.7067 C   0  0  1  0  0  0  0  0  0  0  0  0
   -0.7094    0.7557    3.3833 C   0  0  1  0  0  0  0  0  0  0  0  0
   -0.0061    0.2376    4.7086 C   0  0  2  0  0  0  0  0  0  0  0  0
   -0.6250    1.2724    5.6726 C   0  0  1  0  0  0  0  0  0  0  0  0
    0.0522    1.3596    6.9269 O   0  0  0  0  0  0  0  0  0  0  0  0
   -0.7238    1.8290    8.0193 C   0  0  0  0  0  0  0  0  0  0  0  0
   -0.6612    2.5287    4.6834 C   0  0  2  0  0  0  0  0  0  0  0  0
   -1.1157    3.8511    5.3433 C   0  0  0  0  0  0  0  0  0  0  0  0
   -0.0541    4.5356    6.2375 C   0  0  0  0  0  0  0  0  0  0  0  0
   -1.6817    1.8786    3.7338 C   0  0  1  0  0  0  0  0  0  0  0  0
   -2.2509    2.6981    2.5518 C   0  0  0  0  0  0  0  0  0  0  0  0
   -3.4448    3.3430    2.9394 O   0  0  0  0  0  0  0  0  0  0  0  0
    0.6818    2.6217    3.7912 C   0  0  2  0  0  0  0  0  0  0  0  0
    0.9989    3.8970    3.2783 O   0  0  0  0  0  0  0  0  0  0  0  0
    1.7584    2.0187    4.7172 C   0  0  2  0  0  0  0  0  0  0  0  0
    3.1730    1.6683    4.4893 N   0  0  1  0  0  0  0  0  0  0  0  0
    4.1799    2.4737    5.2358 C   0  0  0  0  0  0  0  0  0  0  0  0
    2.7986    0.3475    5.1201 C   0  0  0  0  0  0  0  0  0  0  0  0
    1.4811    0.5454    4.3964 C   0  0  2  0  0  0  0  0  0  0  0  0
    3.4075   -2.3754    1.0258 C   0  0  1  0  0  0  0  0  0  0  0  0
    3.4024   -1.7233   -0.2384 O   0  0  0  0  0  0  0  0  0  0  0  0
    4.3323   -8.5308    1.6090 H   0  0  0  0  0  0  0  0  0  0  0  0
    4.5768   -7.9431   -0.0356 H   0  0  0  0  0  0  0  0  0  0  0  0
    3.1633   -7.4304    0.8957 H   0  0  0  0  0  0  0  0  0  0  0  0
    4.6570   -6.2511    2.5149 H   0  0  0  0  0  0  0  0  0  0  0  0
    6.0594   -6.7158    1.5822 H   0  0  0  0  0  0  0  0  0  0  0  0
    5.3364   -5.3741   -0.3498 H   0  0  0  0  0  0  0  0  0  0  0  0
    3.7621   -5.0775    0.3840 H   0  0  0  0  0  0  0  0  0  0  0  0
    6.4262   -4.0917    1.6038 H   0  0  0  0  0  0  0  0  0  0  0  0
    2.8360   -1.9016    3.0303 H   0  0  0  0  0  0  0  0  0  0  0  0
    1.8497   -0.0516    0.9556 H   0  0  0  0  0  0  0  0  0  0  0  0
    0.2469    1.8059    1.6774 H   0  0  0  0  0  0  0  0  0  0  0  0
   -1.1495   -0.0233    2.7718 H   0  0  0  0  0  0  0  0  0  0  0  0
   -0.2251   -0.8016    4.9565 H   0  0  0  0  0  0  0  0  0  0  0  0
   -1.6190    0.9080    5.9240 H   0  0  0  0  0  0  0  0  0  0  0  0
   -0.0565    1.9907    8.8637 H   0  0  0  0  0  0  0  0  0  0  0  0
   -1.4591    1.0729    8.3253 H   0  0  0  0  0  0  0  0  0  0  0  0
   -1.1425    2.8080    7.7842 H   0  0  0  0  0  0  0  0  0  0  0  0
   -1.4391    4.5474    4.5648 H   0  0  0  0  0  0  0  0  0  0  0  0
   -2.0242    3.6347    5.9024 H   0  0  0  0  0  0  0  0  0  0  0  0
   -0.4910    5.3973    6.7404 H   0  0  0  0  0  0  0  0  0  0  0  0
    0.7596    4.9410    5.6171 H   0  0  0  0  0  0  0  0  0  0  0  0
    0.3064    3.8587    7.0162 H   0  0  0  0  0  0  0  0  0  0  0  0
   -2.5550    1.4473    4.2325 H   0  0  0  0  0  0  0  0  0  0  0  0
   -1.5437    3.4453    2.2054 H   0  0  0  0  0  0  0  0  0  0  0  0
   -2.5067    2.0380    1.7186 H   0  0  0  0  0  0  0  0  0  0  0  0
   -4.1199    2.6803    2.9915 H   0  0  0  0  0  0  0  0  0  0  0  0
    0.6104    4.0079    2.3991 H   0  0  0  0  0  0  0  0  0  0  0  0
    1.6870    2.3673    5.7477 H   0  0  0  0  0  0  0  0  0  0  0  0
    3.9358    2.5032    6.2958 H   0  0  0  0  0  0  0  0  0  0  0  0
    4.2756    3.4856    4.8393 H   0  0  0  0  0  0  0  0  0  0  0  0
    5.1018    1.9264    5.1270 H   0  0  0  0  0  0  0  0  0  0  0  0
    3.4132   -0.4877    4.7656 H   0  0  0  0  0  0  0  0  0  0  0  0
    2.7215    0.4351    6.2249 H   0  0  0  0  0  0  0  0  0  0  0  0
    2.6906   -3.1923    1.0654 H   0  0  0  0  0  0  0  0  0  0  0  0
    2.5107   -1.4523   -0.4449 H   0  0  0  0  0  0  0  0  0  0  0  0
    3.3413    1.5748    3.4680 H   0  0  0  0  0  0  0  0  0  0  0  0
  1  2  1  0
  1 33  1  0
  1 34  1  0
  1 35  1  0
  2  3  1  0
  2 36  1  0
  2 37  1  0
  3  4  1  0
  3 38  1  0
  3 39  1  0
  4  5  2  3
  4 40  1  0
  5 31  1  0
  5  6  1  0
  6  7  1  0
  7  8  2  0
  7  9  1  0
  9 10  1  0
  9 31  1  0
  9 41  1  1
 10 11  2  3
 10 42  1  0
 11 30  1  0
 11 12  1  0
 12 24  1  0
 12 13  1  0
 12 43  1  6
 13 21  1  0
 13 14  1  0
 13 44  1  6
 14 30  1  0
 14 15  1  0
 14 45  1  1
 15 16  1  0
 15 18  1  0
 15 46  1  1
 16 17  1  0
 17 47  1  0
 17 48  1  0
 17 49  1  0
 18 19  1  1
 18 21  1  0
 18 24  1  0
 19 20  1  0
 19 50  1  0
 19 51  1  0
 20 52  1  0
 20 53  1  0
 20 54  1  0
 21 22  1  0
 21 55  1  1
 22 23  1  0
 22 56  1  0
 22 57  1  0
 23 58  1  0
 24 25  1  6
 24 26  1  0
 25 59  1  0
 26 30  1  0
 26 27  1  0
 26 60  1  1
 27 28  1  0
 27 29  1  0
 27 68  1  6
 28 61  1  0
 28 62  1  0
 28 63  1  0
 30 29  1  1
 29 64  1  0
 29 65  1  0
 31 32  1  0
 31 66  1  6
 32 67  1  0
M  CHG  1  27   1
M  END
>  <i_m_ct_stereo_status>  (99) 
1

>  <s_m_source_file>  (99) 
/var/tmp/pbs.5076255.sched01/tmpn440o9cr/0yczfkg0t.sdf

>  <i_m_source_file_index>  (99) 
39

>  <i_lp_mmshare_version>  (99) 
48012

>  <i_f3d_flags>  (99) 
0

>  <s_epik_input>  (99) 
W0NIM11bQ0gyXVtDSDJdL1tDSF09QzFcT0MoPU8pW0NASF0oW0NASF0xW09IXSkvW0NIXT1DMlxbQ0BASF0oW0NASF0zW0NASF00W0NAQF0yNTYpW0NAXShbT0hdKShbQ0BASF01TihbQ0gzXSlbQ0gyXTYpW0NAXShbQ0gyXVtDSDNdKShbQ0BASF00T1tDSDNdKVtDQEhdM1tDSDJdW09IXQ==

>  <s_epik_cmdline>  (99) 
J2VwaWtfcHl0aG9uJywgJy1waHQnLCAnMi4wJywgJy1waCcsICc3LjAnLCAnLXRuJywgJzgnLCAnLW1hJywgJzIwMCcsICctaW1hZScsICc8aW5maWxlLm1hZT4nLCAnLW9tYWUnLCAnPG91dGZpbGUubWFlPic=

>  <r_epik_Ionization_Penalty>  (99) 
0.0352056

>  <r_epik_Ionization_Penalty_Charging>  (99) 
0.0236441

>  <r_epik_Ionization_Penalty_Neutral>  (99) 
0.0115614

>  <r_epik_State_Penalty>  (99) 
0.0277706

>  <r_epik_Charging_Adjusted_Penalty>  (99) 
0.0514147

>  <i_epik_Tot_Q>  (99) 
1

>  <i_epik_Tot_abs_Q>  (99) 
1

>  <s_lp_Force_Field>  (99) 
OPLS3e

>  <r_lp_Energy>  (99) 
118.832

>  <b_lp_Chiralities_Consistent>  (99) 
1

>  <s_lp_Variant>  (99) 
32:0-1

>  <s_i_glide_gridfile>  (99) 
pfpi4k_grid

>  <i_i_glide_lignum>  (99) 
39

>  <i_i_glide_rotatable_bonds>  (99) 
9

>  <r_i_docking_score>  (99) 
-3.55821

>  <r_i_glide_ligand_efficiency>  (99) 
-0.111194

>  <r_i_glide_ligand_efficiency_sa>  (99) 
-0.353019

>  <r_i_glide_ligand_efficiency_ln>  (99) 
-0.79678

>  <r_i_glide_gscore>  (99) 
-3.55821

>  <r_i_glide_lipo>  (99) 
-0.292457

>  <r_i_glide_hbond>  (99) 
-0.208415

>  <r_i_glide_metal>  (99) 
-0

>  <r_i_glide_rewards>  (99) 
-0.464604

>  <r_i_glide_evdw>  (99) 
-21.97

>  <r_i_glide_ecoul>  (99) 
-11.9479

>  <r_i_glide_erotb>  (99) 
0.301145

>  <r_i_glide_esite>  (99) 
-0.00318483

>  <r_i_glide_emodel>  (99) 
-37.9844

>  <r_i_glide_energy>  (99) 
-33.918

>  <r_i_glide_einternal>  (99) 
4.72042

>  <r_i_glide_intrahb_reward>  (99) 
-0

>  <i_i_glide_confnum>  (99) 
4

>  <i_i_glide_posenum>  (99) 
10

>  <r_i_glide_eff_state_penalty>  (99) 
0

>  <ligand_id>  (99) 
32

>  <original_smiles>  (99) 
CCCC=C1OC(=O)C(C=C2C3C4C5C(OC)C(CC)(C4CO)C3(O)C3N(C)CC253)C1O

>  <smiles>  (99) 
[H]OC([H])([H])C1([H])C2([H])C3([H])C(=C([H])C4([H])C(=O)OC(=C([H])C([H])([H])C([H])([H])C([H])([H])[H])C4([H])O[H])C45C2([H])C([H])(OC([H])([H])[H])C1(C([H])([H])C([H])([H])[H])C3(O[H])C4([H])[N+]([H])(C([H])([H])[H])C5([H])[H]

$$$$
32:0:2
     RDKit          3D

 68 73  0  0  1  0  0  0  0  0999 V2000
    2.1139   -6.7283    1.4375 C   0  0  0  0  0  0  0  0  0  0  0  0
    3.6207   -6.4643    1.3001 C   0  0  0  0  0  0  0  0  0  0  0  0
    3.9244   -5.2902    0.3432 C   0  0  0  0  0  0  0  0  0  0  0  0
    4.8597   -4.2513    0.9404 C   0  0  0  0  0  0  0  0  0  0  0  0
    4.5612   -2.9803    1.2157 C   0  0  0  0  0  0  0  0  0  0  0  0
    5.4394   -2.1664    1.8810 O   0  0  0  0  0  0  0  0  0  0  0  0
    4.8058   -1.1380    2.4632 C   0  0  0  0  0  0  0  0  0  0  0  0
    5.3225   -0.2114    3.0916 O   0  0  0  0  0  0  0  0  0  0  0  0
    3.3065   -1.3113    2.2730 C   0  0  1  0  0  0  0  0  0  0  0  0
    2.5526    0.0147    2.2159 C   0  0  0  0  0  0  0  0  0  0  0  0
    1.9282    0.6488    3.2185 C   0  0  0  0  0  0  0  0  0  0  0  0
    1.0766    1.8691    3.2150 C   0  0  1  0  0  0  0  0  0  0  0  0
   -0.2569    1.1991    3.5520 C   0  0  1  0  0  0  0  0  0  0  0  0
    0.1794    0.2760    4.7694 C   0  0  2  0  0  0  0  0  0  0  0  0
   -0.3888    1.1450    5.9164 C   0  0  1  0  0  0  0  0  0  0  0  0
    0.1609    0.7942    7.1967 O   0  0  0  0  0  0  0  0  0  0  0  0
   -0.4934    1.3225    8.3544 C   0  0  0  0  0  0  0  0  0  0  0  0
   -0.1365    2.5812    5.2666 C   0  0  2  0  0  0  0  0  0  0  0  0
   -0.4854    3.7770    6.1949 C   0  0  0  0  0  0  0  0  0  0  0  0
   -1.9170    3.7460    6.8395 C   0  0  0  0  0  0  0  0  0  0  0  0
   -1.0860    2.3776    4.0832 C   0  0  1  0  0  0  0  0  0  0  0  0
   -1.2996    3.5735    3.1152 C   0  0  0  0  0  0  0  0  0  0  0  0
   -2.5090    4.2683    3.4037 O   0  0  0  0  0  0  0  0  0  0  0  0
    1.3378    2.6141    4.5829 C   0  0  2  0  0  0  0  0  0  0  0  0
    1.9427    3.8927    4.4297 O   0  0  0  0  0  0  0  0  0  0  0  0
    2.2026    1.6400    5.4048 C   0  0  2  0  0  0  0  0  0  0  0  0
    3.5575    1.0993    5.2471 N   0  0  1  0  0  0  0  0  0  0  0  0
    4.5833    1.4578    6.2782 C   0  0  0  0  0  0  0  0  0  0  0  0
    2.9228   -0.2342    5.4424 C   0  0  0  0  0  0  0  0  0  0  0  0
    1.7321    0.3547    4.6941 C   0  0  2  0  0  0  0  0  0  0  0  0
    3.2347   -2.2495    1.0671 C   0  0  1  0  0  0  0  0  0  0  0  0
    3.2557   -1.5318   -0.1486 O   0  0  0  0  0  0  0  0  0  0  0  0
    1.9226   -7.5463    2.1331 H   0  0  0  0  0  0  0  0  0  0  0  0
    1.6619   -6.9925    0.4818 H   0  0  0  0  0  0  0  0  0  0  0  0
    1.6014   -5.8444    1.8154 H   0  0  0  0  0  0  0  0  0  0  0  0
    4.0365   -6.2814    2.2930 H   0  0  0  0  0  0  0  0  0  0  0  0
    4.1125   -7.3704    0.9402 H   0  0  0  0  0  0  0  0  0  0  0  0
    4.3870   -5.6677   -0.5659 H   0  0  0  0  0  0  0  0  0  0  0  0
    3.0004   -4.8042    0.0314 H   0  0  0  0  0  0  0  0  0  0  0  0
    5.8452   -4.6059    1.2085 H   0  0  0  0  0  0  0  0  0  0  0  0
    2.9425   -1.8645    3.1297 H   0  0  0  0  0  0  0  0  0  0  0  0
    2.4513    0.4516    1.2387 H   0  0  0  0  0  0  0  0  0  0  0  0
    1.0877    2.4506    2.3026 H   0  0  0  0  0  0  0  0  0  0  0  0
   -0.7128    0.6775    2.7116 H   0  0  0  0  0  0  0  0  0  0  0  0
   -0.2333   -0.7375    4.7299 H   0  0  0  0  0  0  0  0  0  0  0  0
   -1.4539    0.9493    6.0022 H   0  0  0  0  0  0  0  0  0  0  0  0
   -0.0376    0.9641    9.2772 H   0  0  0  0  0  0  0  0  0  0  0  0
   -1.5362    0.9935    8.3547 H   0  0  0  0  0  0  0  0  0  0  0  0
   -0.4997    2.3917    8.3894 H   0  0  0  0  0  0  0  0  0  0  0  0
    0.2971    3.8274    6.9527 H   0  0  0  0  0  0  0  0  0  0  0  0
   -0.3657    4.6987    5.6359 H   0  0  0  0  0  0  0  0  0  0  0  0
   -2.0116    4.6319    7.4852 H   0  0  0  0  0  0  0  0  0  0  0  0
   -2.1190    2.9094    7.4698 H   0  0  0  0  0  0  0  0  0  0  0  0
   -2.6901    3.7928    6.0628 H   0  0  0  0  0  0  0  0  0  0  0  0
   -2.0818    2.0291    4.3561 H   0  0  0  0  0  0  0  0  0  0  0  0
   -0.4712    4.2849    3.1236 H   0  0  0  0  0  0  0  0  0  0  0  0
   -1.3986    3.1981    2.1366 H   0  0  0  0  0  0  0  0  0  0  0  0
   -3.2183    3.6954    3.1985 H   0  0  0  0  0  0  0  0  0  0  0  0
    1.4789    4.3737    3.7769 H   0  0  0  0  0  0  0  0  0  0  0  0
    2.0587    1.7678    6.4905 H   0  0  0  0  0  0  0  0  0  0  0  0
    4.2084    1.2886    7.2939 H   0  0  0  0  0  0  0  0  0  0  0  0
    4.8916    2.4916    6.1890 H   0  0  0  0  0  0  0  0  0  0  0  0
    5.4582    0.8308    6.1588 H   0  0  0  0  0  0  0  0  0  0  0  0
    3.4665   -1.0459    4.9768 H   0  0  0  0  0  0  0  0  0  0  0  0
    2.7130   -0.4830    6.5021 H   0  0  0  0  0  0  0  0  0  0  0  0
    2.3699   -2.9141    1.1228 H   0  0  0  0  0  0  0  0  0  0  0  0
    2.3564   -1.2633   -0.3593 H   0  0  0  0  0  0  0  0  0  0  0  0
    3.9176    1.2084    4.2753 H   0  0  0  0  0  0  0  0  0  0  0  0
  1  2  1  0
  1 33  1  0
  1 34  1  0
  1 35  1  0
  2  3  1  0
  2 36  1  0
  2 37  1  0
  3  4  1  0
  3 38  1  0
  3 39  1  0
  4  5  2  3
  4 40  1  0
  5 31  1  0
  5  6  1  0
  6  7  1  0
  7  8  2  0
  7  9  1  0
  9 10  1  0
  9 31  1  0
  9 41  1  1
 10 11  2  3
 10 42  1  0
 11 30  1  0
 11 12  1  0
 12 24  1  0
 12 13  1  0
 12 43  1  6
 13 21  1  0
 13 14  1  0
 13 44  1  6
 14 30  1  0
 14 15  1  0
 14 45  1  6
 15 16  1  0
 15 18  1  0
 15 46  1  1
 16 17  1  0
 17 47  1  0
 17 48  1  0
 17 49  1  0
 18 19  1  1
 18 21  1  0
 18 24  1  0
 19 20  1  0
 19 50  1  0
 19 51  1  0
 20 52  1  0
 20 53  1  0
 20 54  1  0
 21 22  1  0
 21 55  1  1
 22 23  1  0
 22 56  1  0
 22 57  1  0
 23 58  1  0
 24 25  1  6
 24 26  1  0
 25 59  1  0
 26 30  1  0
 26 27  1  0
 26 60  1  1
 27 28  1  0
 27 29  1  0
 27 68  1  6
 28 61  1  0
 28 62  1  0
 28 63  1  0
 30 29  1  1
 29 64  1  0
 29 65  1  0
 31 32  1  0
 31 66  1  1
 32 67  1  0
M  CHG  1  27   1
M  END
>  <i_m_ct_stereo_status>  (100) 
1

>  <s_m_source_file>  (100) 
/var/tmp/pbs.5076255.sched01/tmpn440o9cr/0yczfkg0t.sdf

>  <i_m_source_file_index>  (100) 
39

>  <i_lp_mmshare_version>  (100) 
48012

>  <i_f3d_flags>  (100) 
0

>  <s_epik_input>  (100) 
W0NIM11bQ0gyXVtDSDJdL1tDSF09QzFcT0MoPU8pW0NASF0oW0NASF0xW09IXSkvW0NIXT1DMlxbQ0BASF0oW0NASF0zW0NASF00W0NAQF0yNTYpW0NAXShbT0hdKShbQ0BASF01TihbQ0gzXSlbQ0gyXTYpW0NAXShbQ0gyXVtDSDNdKShbQ0BASF00T1tDSDNdKVtDQEhdM1tDSDJdW09IXQ==

>  <s_epik_cmdline>  (100) 
J2VwaWtfcHl0aG9uJywgJy1waHQnLCAnMi4wJywgJy1waCcsICc3LjAnLCAnLXRuJywgJzgnLCAnLW1hJywgJzIwMCcsICctaW1hZScsICc8aW5maWxlLm1hZT4nLCAnLW9tYWUnLCAnPG91dGZpbGUubWFlPic=

>  <r_epik_Ionization_Penalty>  (100) 
0.0352056

>  <r_epik_Ionization_Penalty_Charging>  (100) 
0.0236441

>  <r_epik_Ionization_Penalty_Neutral>  (100) 
0.0115614

>  <r_epik_State_Penalty>  (100) 
0.0277706

>  <r_epik_Charging_Adjusted_Penalty>  (100) 
0.0514147

>  <i_epik_Tot_Q>  (100) 
1

>  <i_epik_Tot_abs_Q>  (100) 
1

>  <s_lp_Force_Field>  (100) 
OPLS3e

>  <r_lp_Energy>  (100) 
118.832

>  <b_lp_Chiralities_Consistent>  (100) 
1

>  <s_lp_Variant>  (100) 
32:0-1

>  <s_i_glide_gridfile>  (100) 
pfpi4k_grid

>  <i_i_glide_lignum>  (100) 
39

>  <i_i_glide_rotatable_bonds>  (100) 
9

>  <r_i_docking_score>  (100) 
-3.47623

>  <r_i_glide_ligand_efficiency>  (100) 
-0.108632

>  <r_i_glide_ligand_efficiency_sa>  (100) 
-0.344885

>  <r_i_glide_ligand_efficiency_ln>  (100) 
-0.778422

>  <r_i_glide_gscore>  (100) 
-3.47623

>  <r_i_glide_lipo>  (100) 
-0.186901

>  <r_i_glide_hbond>  (100) 
-0.148729

>  <r_i_glide_metal>  (100) 
-0

>  <r_i_glide_rewards>  (100) 
-0.975313

>  <r_i_glide_evdw>  (100) 
-18.7202

>  <r_i_glide_ecoul>  (100) 
-10.2

>  <r_i_glide_erotb>  (100) 
0.301145

>  <r_i_glide_esite>  (100) 
-0.000424373

>  <r_i_glide_emodel>  (100) 
-37.4192

>  <r_i_glide_energy>  (100) 
-28.9202

>  <r_i_glide_einternal>  (100) 
7.04083

>  <r_i_glide_intrahb_reward>  (100) 
-0.5

>  <i_i_glide_confnum>  (100) 
4

>  <i_i_glide_posenum>  (100) 
33

>  <r_i_glide_eff_state_penalty>  (100) 
0

>  <ligand_id>  (100) 
32

>  <original_smiles>  (100) 
CCCC=C1OC(=O)C(C=C2C3C4C5C(OC)C(CC)(C4CO)C3(O)C3N(C)CC253)C1O

>  <smiles>  (100) 
[H]OC([H])([H])C1([H])C2([H])C3([H])C(=C([H])C4([H])C(=O)OC(=C([H])C([H])([H])C([H])([H])C([H])([H])[H])C4([H])O[H])C45C2([H])C([H])(OC([H])([H])[H])C1(C([H])([H])C([H])([H])[H])C3(O[H])C4([H])[N+]([H])(C([H])([H])[H])C5([H])[H]

$$$$
32:1:0
     RDKit          3D

 67 72  0  0  1  0  0  0  0  0999 V2000
   -0.8224    1.8729    6.4864 C   0  0  0  0  0  0  0  0  0  0  0  0
    0.6592    1.9220    6.8842 C   0  0  0  0  0  0  0  0  0  0  0  0
    1.3284    0.5432    6.9248 C   0  0  0  0  0  0  0  0  0  0  0  0
    0.7479   -0.3489    8.0023 C   0  0  0  0  0  0  0  0  0  0  0  0
    0.2056   -1.5698    7.8505 C   0  0  0  0  0  0  0  0  0  0  0  0
   -0.1151   -2.3409    8.9348 O   0  0  0  0  0  0  0  0  0  0  0  0
   -0.1827   -3.6409    8.6118 C   0  0  0  0  0  0  0  0  0  0  0  0
   -0.5350   -4.5678    9.3406 O   0  0  0  0  0  0  0  0  0  0  0  0
    0.2684   -3.7912    7.1693 C   0  0  1  0  0  0  0  0  0  0  0  0
   -0.3532   -4.9869    6.4582 C   0  0  0  0  0  0  0  0  0  0  0  0
    0.2473   -6.1596    6.1770 C   0  0  0  0  0  0  0  0  0  0  0  0
   -0.2447   -7.3340    5.4121 C   0  0  1  0  0  0  0  0  0  0  0  0
    0.6868   -7.2319    4.2104 C   0  0  1  0  0  0  0  0  0  0  0  0
    2.0781   -7.0149    4.9578 C   0  0  2  0  0  0  0  0  0  0  0  0
    2.6383   -8.4520    4.7925 C   0  0  1  0  0  0  0  0  0  0  0  0
    3.7362   -8.7237    5.6806 O   0  0  0  0  0  0  0  0  0  0  0  0
    4.5885   -9.8122    5.3590 C   0  0  0  0  0  0  0  0  0  0  0  0
    1.2720   -9.2478    4.8987 C   0  0  2  0  0  0  0  0  0  0  0  0
    1.4272  -10.7932    4.8961 C   0  0  0  0  0  0  0  0  0  0  0  0
    2.1984  -11.3971    3.6892 C   0  0  0  0  0  0  0  0  0  0  0  0
    0.6231   -8.6545    3.6375 C   0  0  1  0  0  0  0  0  0  0  0  0
   -0.7741   -9.1895    3.2108 C   0  0  0  0  0  0  0  0  0  0  0  0
   -1.2314   -8.4625    2.0777 O   0  0  0  0  0  0  0  0  0  0  0  0
    0.3660   -8.6315    6.1030 C   0  0  2  0  0  0  0  0  0  0  0  0
   -0.5263   -9.4990    6.7047 O   0  0  0  0  0  0  0  0  0  0  0  0
    1.3846   -8.0885    7.1342 C   0  0  2  0  0  0  0  0  0  0  0  0
    1.2448   -7.2690    8.3293 N   0  0  0  0  0  0  0  0  0  0  0  0
    1.6220   -7.9188    9.5824 C   0  0  0  0  0  0  0  0  0  0  0  0
    2.3146   -6.4199    7.7685 C   0  0  0  0  0  0  0  0  0  0  0  0
    1.6208   -6.7237    6.4268 C   0  0  2  0  0  0  0  0  0  0  0  0
    0.0522   -2.4003    6.5844 C   0  0  1  0  0  0  0  0  0  0  0  0
   -1.2551   -2.2448    6.0355 O   0  0  0  0  0  0  0  0  0  0  0  0
   -1.2345    2.8798    6.4231 H   0  0  0  0  0  0  0  0  0  0  0  0
   -1.4162    1.3223    7.2156 H   0  0  0  0  0  0  0  0  0  0  0  0
   -0.9536    1.4012    5.5123 H   0  0  0  0  0  0  0  0  0  0  0  0
    1.1932    2.5472    6.1702 H   0  0  0  0  0  0  0  0  0  0  0  0
    0.7614    2.4153    7.8532 H   0  0  0  0  0  0  0  0  0  0  0  0
    1.2658    0.0621    5.9483 H   0  0  0  0  0  0  0  0  0  0  0  0
    2.3936    0.6681    7.1367 H   0  0  0  0  0  0  0  0  0  0  0  0
    0.8468    0.0268    9.0112 H   0  0  0  0  0  0  0  0  0  0  0  0
    1.3423   -3.9333    7.1840 H   0  0  0  0  0  0  0  0  0  0  0  0
   -1.3622   -4.8582    6.1273 H   0  0  0  0  0  0  0  0  0  0  0  0
   -1.3099   -7.3112    5.2066 H   0  0  0  0  0  0  0  0  0  0  0  0
    0.4092   -6.4453    3.5151 H   0  0  0  0  0  0  0  0  0  0  0  0
    2.7047   -6.2382    4.5178 H   0  0  0  0  0  0  0  0  0  0  0  0
    3.0519   -8.5303    3.7917 H   0  0  0  0  0  0  0  0  0  0  0  0
    5.4194   -9.8890    6.0565 H   0  0  0  0  0  0  0  0  0  0  0  0
    4.9967   -9.6764    4.3695 H   0  0  0  0  0  0  0  0  0  0  0  0
    4.0687  -10.7697    5.3717 H   0  0  0  0  0  0  0  0  0  0  0  0
    1.8914  -11.0593    5.8438 H   0  0  0  0  0  0  0  0  0  0  0  0
    0.4440  -11.2530    4.9508 H   0  0  0  0  0  0  0  0  0  0  0  0
    2.2725  -12.4676    3.8459 H   0  0  0  0  0  0  0  0  0  0  0  0
    3.2345  -11.0417    3.5768 H   0  0  0  0  0  0  0  0  0  0  0  0
    1.6695  -11.2081    2.7568 H   0  0  0  0  0  0  0  0  0  0  0  0
    1.2648   -8.7472    2.7567 H   0  0  0  0  0  0  0  0  0  0  0  0
   -0.7026  -10.2474    2.9438 H   0  0  0  0  0  0  0  0  0  0  0  0
   -1.5311   -9.1273    3.9923 H   0  0  0  0  0  0  0  0  0  0  0  0
   -0.8118   -8.8283    1.3207 H   0  0  0  0  0  0  0  0  0  0  0  0
   -1.0649   -9.9810    6.0074 H   0  0  0  0  0  0  0  0  0  0  0  0
    2.2059   -8.7727    7.2932 H   0  0  0  0  0  0  0  0  0  0  0  0
    1.6734   -7.1777   10.3781 H   0  0  0  0  0  0  0  0  0  0  0  0
    2.5992   -8.3867    9.5066 H   0  0  0  0  0  0  0  0  0  0  0  0
    0.8959   -8.6749    9.8799 H   0  0  0  0  0  0  0  0  0  0  0  0
    2.2772   -5.4047    8.1434 H   0  0  0  0  0  0  0  0  0  0  0  0
    3.3164   -6.8587    7.8489 H   0  0  0  0  0  0  0  0  0  0  0  0
    0.8057   -2.1709    5.8305 H   0  0  0  0  0  0  0  0  0  0  0  0
   -1.2228   -1.5586    5.4172 H   0  0  0  0  0  0  0  0  0  0  0  0
  1  2  1  0
  1 33  1  0
  1 34  1  0
  1 35  1  0
  2  3  1  0
  2 36  1  0
  2 37  1  0
  3  4  1  0
  3 38  1  0
  3 39  1  0
  4  5  2  3
  4 40  1  0
  5 31  1  0
  5  6  1  0
  6  7  1  0
  7  8  2  0
  7  9  1  0
  9 10  1  0
  9 31  1  0
  9 41  1  1
 10 11  2  3
 10 42  1  0
 11 30  1  0
 11 12  1  0
 12 24  1  0
 12 13  1  0
 12 43  1  6
 13 21  1  0
 13 14  1  0
 13 44  1  6
 14 30  1  0
 14 15  1  0
 14 45  1  6
 15 16  1  0
 15 18  1  0
 15 46  1  6
 16 17  1  0
 17 47  1  0
 17 48  1  0
 17 49  1  0
 18 19  1  6
 18 21  1  0
 18 24  1  0
 19 20  1  0
 19 50  1  0
 19 51  1  0
 20 52  1  0
 20 53  1  0
 20 54  1  0
 21 22  1  0
 21 55  1  6
 22 23  1  0
 22 56  1  0
 22 57  1  0
 23 58  1  0
 24 25  1  1
 24 26  1  0
 25 59  1  0
 26 30  1  0
 26 27  1  0
 26 60  1  1
 27 28  1  0
 27 29  1  0
 28 61  1  0
 28 62  1  0
 28 63  1  0
 30 29  1  1
 29 64  1  0
 29 65  1  0
 31 32  1  0
 31 66  1  6
 32 67  1  0
M  END
>  <i_m_ct_stereo_status>  (101) 
1

>  <s_m_source_file>  (101) 
/var/tmp/pbs.5076255.sched01/tmpbrsd6n1o/39u_ie0p0h.sdf

>  <i_m_source_file_index>  (101) 
1

>  <i_lp_mmshare_version>  (101) 
48012

>  <i_f3d_flags>  (101) 
0

>  <s_epik_input>  (101) 
W0NIM11bQ0gyXVtDSDJdL1tDSF09QzFcT0MoPU8pW0NASF0oW0NASF0xW09IXSkvW0NIXT1DMlxbQ0BASF0oW0NASF0zW0NASF00W0NAQF0yNTYpW0NAXShbT0hdKShbQ0BASF01TihbQ0gzXSlbQ0gyXTYpW0NAXShbQ0gyXVtDSDNdKShbQ0BASF00T1tDSDNdKVtDQEhdM1tDSDJdW09IXQ==

>  <s_epik_cmdline>  (101) 
J2VwaWtfcHl0aG9uJywgJy1waHQnLCAnMi4wJywgJy1waCcsICc3LjAnLCAnLXRuJywgJzgnLCAnLW1hJywgJzIwMCcsICctaW1hZScsICc8aW5maWxlLm1hZT4nLCAnLW9tYWUnLCAnPG91dGZpbGUubWFlPic=

>  <r_epik_Ionization_Penalty>  (101) 
1.92207

>  <r_epik_Ionization_Penalty_Charging>  (101) 
0

>  <r_epik_Ionization_Penalty_Neutral>  (101) 
1.92207

>  <r_epik_State_Penalty>  (101) 
2.05166

>  <r_epik_Charging_Adjusted_Penalty>  (101) 
2.05166

>  <i_epik_Tot_Q>  (101) 
0

>  <i_epik_Tot_abs_Q>  (101) 
0

>  <s_lp_Force_Field>  (101) 
OPLS3e

>  <r_lp_Energy>  (101) 
114.297

>  <b_lp_Chiralities_Consistent>  (101) 
1

>  <s_lp_Variant>  (101) 
32:0-2

>  <s_i_glide_gridfile>  (101) 
pfpi4k_grid

>  <i_i_glide_lignum>  (101) 
1

>  <i_i_glide_rotatable_bonds>  (101) 
9

>  <r_i_docking_score>  (101) 
-3.12793

>  <r_i_glide_ligand_efficiency>  (101) 
-0.0977477

>  <r_i_glide_ligand_efficiency_sa>  (101) 
-0.310329

>  <r_i_glide_ligand_efficiency_ln>  (101) 
-0.700428

>  <r_i_glide_gscore>  (101) 
-3.12793

>  <r_i_glide_lipo>  (101) 
-0.0496313

>  <r_i_glide_hbond>  (101) 
-0.59714

>  <r_i_glide_metal>  (101) 
-0

>  <r_i_glide_rewards>  (101) 
-0.37126

>  <r_i_glide_evdw>  (101) 
-18.406

>  <r_i_glide_ecoul>  (101) 
-9.67872

>  <r_i_glide_erotb>  (101) 
0.302384

>  <r_i_glide_esite>  (101) 
-0.0401724

>  <r_i_glide_emodel>  (101) 
-32.3009

>  <r_i_glide_energy>  (101) 
-28.0847

>  <r_i_glide_einternal>  (101) 
3.66756

>  <r_i_glide_intrahb_reward>  (101) 
-0

>  <i_i_glide_confnum>  (101) 
3

>  <i_i_glide_posenum>  (101) 
23

>  <r_i_glide_eff_state_penalty>  (101) 
0

>  <ligand_id>  (101) 
32

>  <original_smiles>  (101) 
CCCC=C1OC(=O)C(C=C2C3C4C5C(OC)C(CC)(C4CO)C3(O)C3N(C)CC253)C1O

>  <smiles>  (101) 
[H]OC([H])([H])C1([H])C2([H])C3([H])C(=C([H])C4([H])C(=O)OC(=C([H])C([H])([H])C([H])([H])C([H])([H])[H])C4([H])O[H])C45C([H])([H])N(C([H])([H])[H])C4([H])C3(O[H])C1(C([H])([H])C([H])([H])[H])C([H])(OC([H])([H])[H])C25[H]

$$$$
32:1:1
     RDKit          3D

 67 72  0  0  1  0  0  0  0  0999 V2000
    3.8340   -6.3715    1.6583 C   0  0  0  0  0  0  0  0  0  0  0  0
    4.6264   -6.4043    0.3451 C   0  0  0  0  0  0  0  0  0  0  0  0
    4.5700   -5.0896   -0.4406 C   0  0  0  0  0  0  0  0  0  0  0  0
    5.3234   -3.9724    0.2455 C   0  0  0  0  0  0  0  0  0  0  0  0
    4.8455   -2.7704    0.5543 C   0  0  0  0  0  0  0  0  0  0  0  0
    5.5946   -1.9171    1.2971 O   0  0  0  0  0  0  0  0  0  0  0  0
    4.8356   -0.9871    1.8735 C   0  0  0  0  0  0  0  0  0  0  0  0
    5.2695   -0.0320    2.4954 O   0  0  0  0  0  0  0  0  0  0  0  0
    3.3681   -1.3217    1.6396 C   0  0  1  0  0  0  0  0  0  0  0  0
    2.4129   -0.1268    1.6378 C   0  0  0  0  0  0  0  0  0  0  0  0
    1.8049    0.4426    2.6968 C   0  0  0  0  0  0  0  0  0  0  0  0
    0.8148    1.5525    2.7575 C   0  0  1  0  0  0  0  0  0  0  0  0
   -0.3892    0.7555    3.2636 C   0  0  1  0  0  0  0  0  0  0  0  0
    0.2916   -0.0677    4.4433 C   0  0  2  0  0  0  0  0  0  0  0  0
   -0.2270    0.7718    5.6357 C   0  0  1  0  0  0  0  0  0  0  0  0
    0.5026    0.5353    6.8553 O   0  0  0  0  0  0  0  0  0  0  0  0
   -0.0795    1.0018    8.0700 C   0  0  0  0  0  0  0  0  0  0  0  0
   -0.2097    2.2051    4.9336 C   0  0  2  0  0  0  0  0  0  0  0  0
   -0.5831    3.3873    5.8636 C   0  0  0  0  0  0  0  0  0  0  0  0
   -1.9418    3.2626    6.6055 C   0  0  0  0  0  0  0  0  0  0  0  0
   -1.2674    1.8606    3.8702 C   0  0  1  0  0  0  0  0  0  0  0  0
   -1.7285    2.9795    2.8933 C   0  0  0  0  0  0  0  0  0  0  0  0
   -2.5545    3.9158    3.5398 O   0  0  0  0  0  0  0  0  0  0  0  0
    1.1436    2.3883    4.0589 C   0  0  2  0  0  0  0  0  0  0  0  0
    1.5413    3.7351    3.8214 O   0  0  0  0  0  0  0  0  0  0  0  0
    2.1973    1.5471    4.8226 C   0  0  2  0  0  0  0  0  0  0  0  0
    3.5480    1.1400    4.4965 N   0  0  0  0  0  0  0  0  0  0  0  0
    4.5848    1.6664    5.3526 C   0  0  0  0  0  0  0  0  0  0  0  0
    3.1256   -0.2348    4.8455 C   0  0  0  0  0  0  0  0  0  0  0  0
    1.8179    0.1918    4.1881 C   0  0  2  0  0  0  0  0  0  0  0  0
    3.4491   -2.1837    0.3720 C   0  0  1  0  0  0  0  0  0  0  0  0
    3.3946   -1.4251   -0.8077 O   0  0  0  0  0  0  0  0  0  0  0  0
    3.8900   -7.3345    2.1696 H   0  0  0  0  0  0  0  0  0  0  0  0
    2.7821   -6.1567    1.4695 H   0  0  0  0  0  0  0  0  0  0  0  0
    4.2187   -5.6114    2.3388 H   0  0  0  0  0  0  0  0  0  0  0  0
    5.6620   -6.6903    0.5457 H   0  0  0  0  0  0  0  0  0  0  0  0
    4.2159   -7.1850   -0.2866 H   0  0  0  0  0  0  0  0  0  0  0  0
    5.0349   -5.2128   -1.4095 H   0  0  0  0  0  0  0  0  0  0  0  0
    3.5297   -4.8055   -0.6256 H   0  0  0  0  0  0  0  0  0  0  0  0
    6.3428   -4.1910    0.5434 H   0  0  0  0  0  0  0  0  0  0  0  0
    3.0277   -1.9550    2.4530 H   0  0  0  0  0  0  0  0  0  0  0  0
    2.1486    0.2770    0.6634 H   0  0  0  0  0  0  0  0  0  0  0  0
    0.6855    2.0814    1.8136 H   0  0  0  0  0  0  0  0  0  0  0  0
   -0.8575    0.1394    2.4997 H   0  0  0  0  0  0  0  0  0  0  0  0
    0.0111   -1.1199    4.4787 H   0  0  0  0  0  0  0  0  0  0  0  0
   -1.2397    0.4440    5.8424 H   0  0  0  0  0  0  0  0  0  0  0  0
    0.5501    0.6893    8.9200 H   0  0  0  0  0  0  0  0  0  0  0  0
   -1.0367    0.5295    8.1994 H   0  0  0  0  0  0  0  0  0  0  0  0
   -0.2801    2.0439    8.0855 H   0  0  0  0  0  0  0  0  0  0  0  0
    0.2373    3.5006    6.5669 H   0  0  0  0  0  0  0  0  0  0  0  0
   -0.5595    4.3142    5.2999 H   0  0  0  0  0  0  0  0  0  0  0  0
   -2.1006    4.1454    7.2262 H   0  0  0  0  0  0  0  0  0  0  0  0
   -1.9823    2.4021    7.2401 H   0  0  0  0  0  0  0  0  0  0  0  0
   -2.7882    3.2667    5.9034 H   0  0  0  0  0  0  0  0  0  0  0  0
   -2.1830    1.4271    4.2779 H   0  0  0  0  0  0  0  0  0  0  0  0
   -0.9080    3.5560    2.4875 H   0  0  0  0  0  0  0  0  0  0  0  0
   -2.3129    2.5360    2.0953 H   0  0  0  0  0  0  0  0  0  0  0  0
   -3.3251    3.4393    3.8188 H   0  0  0  0  0  0  0  0  0  0  0  0
    1.0667    4.0694    3.0707 H   0  0  0  0  0  0  0  0  0  0  0  0
    2.1349    1.6721    5.9037 H   0  0  0  0  0  0  0  0  0  0  0  0
    5.5285    1.1566    5.1235 H   0  0  0  0  0  0  0  0  0  0  0  0
    4.3619    1.4919    6.4177 H   0  0  0  0  0  0  0  0  0  0  0  0
    4.7368    2.7434    5.2020 H   0  0  0  0  0  0  0  0  0  0  0  0
    3.6949   -1.0058    4.3376 H   0  0  0  0  0  0  0  0  0  0  0  0
    3.0685   -0.4160    5.9259 H   0  0  0  0  0  0  0  0  0  0  0  0
    2.6778   -2.9719    0.3660 H   0  0  0  0  0  0  0  0  0  0  0  0
    2.4885   -1.1403   -0.9155 H   0  0  0  0  0  0  0  0  0  0  0  0
  1  2  1  0
  1 33  1  0
  1 34  1  0
  1 35  1  0
  2  3  1  0
  2 36  1  0
  2 37  1  0
  3  4  1  0
  3 38  1  0
  3 39  1  0
  4  5  2  3
  4 40  1  0
  5 31  1  0
  5  6  1  0
  6  7  1  0
  7  8  2  0
  7  9  1  0
  9 10  1  0
  9 31  1  0
  9 41  1  1
 10 11  2  3
 10 42  1  0
 11 30  1  0
 11 12  1  0
 12 24  1  0
 12 13  1  0
 12 43  1  6
 13 21  1  0
 13 14  1  0
 13 44  1  6
 14 30  1  0
 14 15  1  0
 14 45  1  1
 15 16  1  0
 15 18  1  0
 15 46  1  1
 16 17  1  0
 17 47  1  0
 17 48  1  0
 17 49  1  0
 18 19  1  1
 18 21  1  0
 18 24  1  0
 19 20  1  0
 19 50  1  0
 19 51  1  0
 20 52  1  0
 20 53  1  0
 20 54  1  0
 21 22  1  0
 21 55  1  1
 22 23  1  0
 22 56  1  0
 22 57  1  0
 23 58  1  0
 24 25  1  6
 24 26  1  0
 25 59  1  0
 26 30  1  0
 26 27  1  0
 26 60  1  1
 27 28  1  0
 27 29  1  0
 28 61  1  0
 28 62  1  0
 28 63  1  0
 30 29  1  6
 29 64  1  0
 29 65  1  0
 31 32  1  0
 31 66  1  6
 32 67  1  0
M  END
>  <i_m_ct_stereo_status>  (102) 
1

>  <s_m_source_file>  (102) 
/var/tmp/pbs.5076255.sched01/tmpbrsd6n1o/39u_ie0p0h.sdf

>  <i_m_source_file_index>  (102) 
1

>  <i_lp_mmshare_version>  (102) 
48012

>  <i_f3d_flags>  (102) 
0

>  <s_epik_input>  (102) 
W0NIM11bQ0gyXVtDSDJdL1tDSF09QzFcT0MoPU8pW0NASF0oW0NASF0xW09IXSkvW0NIXT1DMlxbQ0BASF0oW0NASF0zW0NASF00W0NAQF0yNTYpW0NAXShbT0hdKShbQ0BASF01TihbQ0gzXSlbQ0gyXTYpW0NAXShbQ0gyXVtDSDNdKShbQ0BASF00T1tDSDNdKVtDQEhdM1tDSDJdW09IXQ==

>  <s_epik_cmdline>  (102) 
J2VwaWtfcHl0aG9uJywgJy1waHQnLCAnMi4wJywgJy1waCcsICc3LjAnLCAnLXRuJywgJzgnLCAnLW1hJywgJzIwMCcsICctaW1hZScsICc8aW5maWxlLm1hZT4nLCAnLW9tYWUnLCAnPG91dGZpbGUubWFlPic=

>  <r_epik_Ionization_Penalty>  (102) 
1.92207

>  <r_epik_Ionization_Penalty_Charging>  (102) 
0

>  <r_epik_Ionization_Penalty_Neutral>  (102) 
1.92207

>  <r_epik_State_Penalty>  (102) 
2.05166

>  <r_epik_Charging_Adjusted_Penalty>  (102) 
2.05166

>  <i_epik_Tot_Q>  (102) 
0

>  <i_epik_Tot_abs_Q>  (102) 
0

>  <s_lp_Force_Field>  (102) 
OPLS3e

>  <r_lp_Energy>  (102) 
114.297

>  <b_lp_Chiralities_Consistent>  (102) 
1

>  <s_lp_Variant>  (102) 
32:0-2

>  <s_i_glide_gridfile>  (102) 
pfpi4k_grid

>  <i_i_glide_lignum>  (102) 
1

>  <i_i_glide_rotatable_bonds>  (102) 
9

>  <r_i_docking_score>  (102) 
-3.03317

>  <r_i_glide_ligand_efficiency>  (102) 
-0.0947866

>  <r_i_glide_ligand_efficiency_sa>  (102) 
-0.300929

>  <r_i_glide_ligand_efficiency_ln>  (102) 
-0.679209

>  <r_i_glide_gscore>  (102) 
-3.03317

>  <r_i_glide_lipo>  (102) 
-0.336487

>  <r_i_glide_hbond>  (102) 
-0.183912

>  <r_i_glide_metal>  (102) 
-0

>  <r_i_glide_rewards>  (102) 
-0.50007

>  <r_i_glide_evdw>  (102) 
-22.3635

>  <r_i_glide_ecoul>  (102) 
-7.9794

>  <r_i_glide_erotb>  (102) 
0.302384

>  <r_i_glide_esite>  (102) 
0

>  <r_i_glide_emodel>  (102) 
-33.3387

>  <r_i_glide_energy>  (102) 
-30.3429

>  <r_i_glide_einternal>  (102) 
4.25692

>  <r_i_glide_intrahb_reward>  (102) 
-0

>  <i_i_glide_confnum>  (102) 
2

>  <i_i_glide_posenum>  (102) 
17

>  <r_i_glide_eff_state_penalty>  (102) 
0

>  <ligand_id>  (102) 
32

>  <original_smiles>  (102) 
CCCC=C1OC(=O)C(C=C2C3C4C5C(OC)C(CC)(C4CO)C3(O)C3N(C)CC253)C1O

>  <smiles>  (102) 
[H]OC([H])([H])C1([H])C2([H])C3([H])C(=C([H])C4([H])C(=O)OC(=C([H])C([H])([H])C([H])([H])C([H])([H])[H])C4([H])O[H])C45C([H])([H])N(C([H])([H])[H])C4([H])C3(O[H])C1(C([H])([H])C([H])([H])[H])C([H])(OC([H])([H])[H])C25[H]

$$$$
32:1:2
     RDKit          3D

 67 72  0  0  1  0  0  0  0  0999 V2000
    3.6460   -8.1637    1.2436 C   0  0  0  0  0  0  0  0  0  0  0  0
    4.5083   -6.9177    1.4906 C   0  0  0  0  0  0  0  0  0  0  0  0
    4.3282   -5.8547    0.3852 C   0  0  0  0  0  0  0  0  0  0  0  0
    5.1807   -4.6178    0.6271 C   0  0  0  0  0  0  0  0  0  0  0  0
    4.7397   -3.3599    0.7462 C   0  0  0  0  0  0  0  0  0  0  0  0
    5.5889   -2.3563    1.1303 O   0  0  0  0  0  0  0  0  0  0  0  0
    4.9180   -1.3268    1.6328 C   0  0  0  0  0  0  0  0  0  0  0  0
    5.3971   -0.2569    1.9921 O   0  0  0  0  0  0  0  0  0  0  0  0
    3.4417   -1.7018    1.7399 C   0  0  1  0  0  0  0  0  0  0  0  0
    2.4895   -0.5172    1.6569 C   0  0  0  0  0  0  0  0  0  0  0  0
    1.8922    0.1171    2.6830 C   0  0  0  0  0  0  0  0  0  0  0  0
    0.8992    1.2169    2.6789 C   0  0  1  0  0  0  0  0  0  0  0  0
   -0.2874    0.4542    3.2634 C   0  0  1  0  0  0  0  0  0  0  0  0
    0.4241   -0.2823    4.4867 C   0  0  2  0  0  0  0  0  0  0  0  0
   -0.1101    0.6303    5.6117 C   0  0  1  0  0  0  0  0  0  0  0  0
    0.6341    0.4847    6.8344 O   0  0  0  0  0  0  0  0  0  0  0  0
    0.0308    0.9751    8.0390 C   0  0  0  0  0  0  0  0  0  0  0  0
   -0.1392    2.0093    4.8046 C   0  0  2  0  0  0  0  0  0  0  0  0
   -0.5219    3.2346    5.6783 C   0  0  0  0  0  0  0  0  0  0  0  0
   -1.9279    3.1653    6.3670 C   0  0  0  0  0  0  0  0  0  0  0  0
   -1.2059    1.5754    3.7806 C   0  0  1  0  0  0  0  0  0  0  0  0
   -1.7358    2.5886    2.7202 C   0  0  0  0  0  0  0  0  0  0  0  0
   -2.3039    3.7453    3.2977 O   0  0  0  0  0  0  0  0  0  0  0  0
    1.2183    2.1544    3.9193 C   0  0  2  0  0  0  0  0  0  0  0  0
    1.5439    3.4939    3.5654 O   0  0  0  0  0  0  0  0  0  0  0  0
    2.2871    1.3897    4.7118 C   0  0  2  0  0  0  0  0  0  0  0  0
    3.6554    0.9827    4.3967 N   0  0  0  0  0  0  0  0  0  0  0  0
    4.6778    1.5980    5.2290 C   0  0  0  0  0  0  0  0  0  0  0  0
    3.2838   -0.3692    4.8518 C   0  0  0  0  0  0  0  0  0  0  0  0
    1.9295   -0.0338    4.1861 C   0  0  2  0  0  0  0  0  0  0  0  0
    3.3183   -2.8220    0.7174 C   0  0  1  0  0  0  0  0  0  0  0  0
    3.0044   -2.3261   -0.5879 O   0  0  0  0  0  0  0  0  0  0  0  0
    3.7434   -8.8855    2.0546 H   0  0  0  0  0  0  0  0  0  0  0  0
    3.9406   -8.6700    0.3241 H   0  0  0  0  0  0  0  0  0  0  0  0
    2.5911   -7.9000    1.1660 H   0  0  0  0  0  0  0  0  0  0  0  0
    4.2442   -6.4950    2.4613 H   0  0  0  0  0  0  0  0  0  0  0  0
    5.5529   -7.2224    1.5639 H   0  0  0  0  0  0  0  0  0  0  0  0
    4.6417   -6.2621   -0.5742 H   0  0  0  0  0  0  0  0  0  0  0  0
    3.2731   -5.6027    0.2927 H   0  0  0  0  0  0  0  0  0  0  0  0
    6.2364   -4.8029    0.7516 H   0  0  0  0  0  0  0  0  0  0  0  0
    3.3071   -2.1542    2.7109 H   0  0  0  0  0  0  0  0  0  0  0  0
    2.2575   -0.1635    0.6702 H   0  0  0  0  0  0  0  0  0  0  0  0
    0.7770    1.6528    1.6911 H   0  0  0  0  0  0  0  0  0  0  0  0
   -0.7305   -0.2154    2.5367 H   0  0  0  0  0  0  0  0  0  0  0  0
    0.1525   -1.3348    4.5989 H   0  0  0  0  0  0  0  0  0  0  0  0
   -1.1197    0.2882    5.8394 H   0  0  0  0  0  0  0  0  0  0  0  0
    0.6715    0.7365    8.9045 H   0  0  0  0  0  0  0  0  0  0  0  0
   -0.9277    0.4730    8.1913 H   0  0  0  0  0  0  0  0  0  0  0  0
   -0.1563    2.0280    8.0394 H   0  0  0  0  0  0  0  0  0  0  0  0
    0.2885    3.3818    6.3920 H   0  0  0  0  0  0  0  0  0  0  0  0
   -0.4555    4.1412    5.0806 H   0  0  0  0  0  0  0  0  0  0  0  0
   -2.0822    4.0842    6.9409 H   0  0  0  0  0  0  0  0  0  0  0  0
   -2.0559    2.3268    7.0427 H   0  0  0  0  0  0  0  0  0  0  0  0
   -2.7449    3.1263    5.6350 H   0  0  0  0  0  0  0  0  0  0  0  0
   -2.1004    1.1598    4.2469 H   0  0  0  0  0  0  0  0  0  0  0  0
   -0.9494    2.9412    2.0749 H   0  0  0  0  0  0  0  0  0  0  0  0
   -2.4936    2.1168    2.0862 H   0  0  0  0  0  0  0  0  0  0  0  0
   -1.6311    4.1179    3.8419 H   0  0  0  0  0  0  0  0  0  0  0  0
    1.0957    3.7388    2.7682 H   0  0  0  0  0  0  0  0  0  0  0  0
    2.2451    1.5774    5.7825 H   0  0  0  0  0  0  0  0  0  0  0  0
    5.6232    1.1029    5.0278 H   0  0  0  0  0  0  0  0  0  0  0  0
    4.4392    1.4868    6.2784 H   0  0  0  0  0  0  0  0  0  0  0  0
    4.7710    2.6587    4.9950 H   0  0  0  0  0  0  0  0  0  0  0  0
    3.9012   -1.1315    4.3952 H   0  0  0  0  0  0  0  0  0  0  0  0
    3.2331   -0.4629    5.9415 H   0  0  0  0  0  0  0  0  0  0  0  0
    2.5986   -3.5653    1.0550 H   0  0  0  0  0  0  0  0  0  0  0  0
    2.1679   -1.8913   -0.5845 H   0  0  0  0  0  0  0  0  0  0  0  0
  1  2  1  0
  1 33  1  0
  1 34  1  0
  1 35  1  0
  2  3  1  0
  2 36  1  0
  2 37  1  0
  3  4  1  0
  3 38  1  0
  3 39  1  0
  4  5  2  3
  4 40  1  0
  5 31  1  0
  5  6  1  0
  6  7  1  0
  7  8  2  0
  7  9  1  0
  9 10  1  0
  9 31  1  0
  9 41  1  1
 10 11  2  3
 10 42  1  0
 11 30  1  0
 11 12  1  0
 12 24  1  0
 12 13  1  0
 12 43  1  6
 13 21  1  0
 13 14  1  0
 13 44  1  6
 14 30  1  0
 14 15  1  0
 14 45  1  1
 15 16  1  0
 15 18  1  0
 15 46  1  1
 16 17  1  0
 17 47  1  0
 17 48  1  0
 17 49  1  0
 18 19  1  1
 18 21  1  0
 18 24  1  0
 19 20  1  0
 19 50  1  0
 19 51  1  0
 20 52  1  0
 20 53  1  0
 20 54  1  0
 21 22  1  0
 21 55  1  1
 22 23  1  0
 22 56  1  0
 22 57  1  0
 23 58  1  0
 24 25  1  6
 24 26  1  0
 25 59  1  0
 26 30  1  0
 26 27  1  0
 26 60  1  1
 27 28  1  0
 27 29  1  0
 28 61  1  0
 28 62  1  0
 28 63  1  0
 30 29  1  6
 29 64  1  0
 29 65  1  0
 31 32  1  0
 31 66  1  1
 32 67  1  0
M  END
>  <i_m_ct_stereo_status>  (103) 
1

>  <s_m_source_file>  (103) 
/var/tmp/pbs.5076255.sched01/tmpbrsd6n1o/39u_ie0p0h.sdf

>  <i_m_source_file_index>  (103) 
1

>  <i_lp_mmshare_version>  (103) 
48012

>  <i_f3d_flags>  (103) 
0

>  <s_epik_input>  (103) 
W0NIM11bQ0gyXVtDSDJdL1tDSF09QzFcT0MoPU8pW0NASF0oW0NASF0xW09IXSkvW0NIXT1DMlxbQ0BASF0oW0NASF0zW0NASF00W0NAQF0yNTYpW0NAXShbT0hdKShbQ0BASF01TihbQ0gzXSlbQ0gyXTYpW0NAXShbQ0gyXVtDSDNdKShbQ0BASF00T1tDSDNdKVtDQEhdM1tDSDJdW09IXQ==

>  <s_epik_cmdline>  (103) 
J2VwaWtfcHl0aG9uJywgJy1waHQnLCAnMi4wJywgJy1waCcsICc3LjAnLCAnLXRuJywgJzgnLCAnLW1hJywgJzIwMCcsICctaW1hZScsICc8aW5maWxlLm1hZT4nLCAnLW9tYWUnLCAnPG91dGZpbGUubWFlPic=

>  <r_epik_Ionization_Penalty>  (103) 
1.92207

>  <r_epik_Ionization_Penalty_Charging>  (103) 
0

>  <r_epik_Ionization_Penalty_Neutral>  (103) 
1.92207

>  <r_epik_State_Penalty>  (103) 
2.05166

>  <r_epik_Charging_Adjusted_Penalty>  (103) 
2.05166

>  <i_epik_Tot_Q>  (103) 
0

>  <i_epik_Tot_abs_Q>  (103) 
0

>  <s_lp_Force_Field>  (103) 
OPLS3e

>  <r_lp_Energy>  (103) 
114.297

>  <b_lp_Chiralities_Consistent>  (103) 
1

>  <s_lp_Variant>  (103) 
32:0-2

>  <s_i_glide_gridfile>  (103) 
pfpi4k_grid

>  <i_i_glide_lignum>  (103) 
1

>  <i_i_glide_rotatable_bonds>  (103) 
9

>  <r_i_docking_score>  (103) 
-2.85972

>  <r_i_glide_ligand_efficiency>  (103) 
-0.0893663

>  <r_i_glide_ligand_efficiency_sa>  (103) 
-0.28372

>  <r_i_glide_ligand_efficiency_ln>  (103) 
-0.640369

>  <r_i_glide_gscore>  (103) 
-2.85972

>  <r_i_glide_lipo>  (103) 
-0.338019

>  <r_i_glide_hbond>  (103) 
-0.237736

>  <r_i_glide_metal>  (103) 
-0

>  <r_i_glide_rewards>  (103) 
-0.470517

>  <r_i_glide_evdw>  (103) 
-22.963

>  <r_i_glide_ecoul>  (103) 
-6.45122

>  <r_i_glide_erotb>  (103) 
0.302384

>  <r_i_glide_esite>  (103) 
0

>  <r_i_glide_emodel>  (103) 
-32.5561

>  <r_i_glide_energy>  (103) 
-29.4142

>  <r_i_glide_einternal>  (103) 
3.88867

>  <r_i_glide_intrahb_reward>  (103) 
-0

>  <i_i_glide_confnum>  (103) 
2

>  <i_i_glide_posenum>  (103) 
24

>  <r_i_glide_eff_state_penalty>  (103) 
0

>  <ligand_id>  (103) 
32

>  <original_smiles>  (103) 
CCCC=C1OC(=O)C(C=C2C3C4C5C(OC)C(CC)(C4CO)C3(O)C3N(C)CC253)C1O

>  <smiles>  (103) 
[H]OC([H])([H])C1([H])C2([H])C3([H])C(=C([H])C4([H])C(=O)OC(=C([H])C([H])([H])C([H])([H])C([H])([H])[H])C4([H])O[H])C45C([H])([H])N(C([H])([H])[H])C4([H])C3(O[H])C1(C([H])([H])C([H])([H])[H])C([H])(OC([H])([H])[H])C25[H]

$$$$
32:2:0
     RDKit          3D

 67 72  0  0  1  0  0  0  0  0999 V2000
    4.5042   -2.1388   -3.3165 C   0  0  0  0  0  0  0  0  0  0  0  0
    3.9861   -3.3439   -2.5238 C   0  0  0  0  0  0  0  0  0  0  0  0
    4.9582   -3.8964   -1.4654 C   0  0  0  0  0  0  0  0  0  0  0  0
    5.5272   -2.8184   -0.5547 C   0  0  0  0  0  0  0  0  0  0  0  0
    5.0505   -2.3223    0.5971 C   0  0  0  0  0  0  0  0  0  0  0  0
    5.7105   -1.2880    1.1865 O   0  0  0  0  0  0  0  0  0  0  0  0
    5.0274   -0.7912    2.2251 C   0  0  0  0  0  0  0  0  0  0  0  0
    5.4120    0.1094    2.9749 O   0  0  0  0  0  0  0  0  0  0  0  0
    3.6866   -1.4608    2.3782 C   0  0  1  0  0  0  0  0  0  0  0  0
    2.6009   -0.3953    2.1585 C   0  0  0  0  0  0  0  0  0  0  0  0
    1.9329    0.2990    3.1015 C   0  0  0  0  0  0  0  0  0  0  0  0
    0.8269    1.2777    2.9435 C   0  0  1  0  0  0  0  0  0  0  0  0
   -0.2943    0.4473    3.5575 C   0  0  1  0  0  0  0  0  0  0  0  0
    0.4239   -0.0854    4.8798 C   0  0  2  0  0  0  0  0  0  0  0  0
   -0.2497    0.8901    5.8694 C   0  0  1  0  0  0  0  0  0  0  0  0
    0.4128    1.0555    7.1235 O   0  0  0  0  0  0  0  0  0  0  0  0
    0.5957   -0.1469    7.8610 C   0  0  0  0  0  0  0  0  0  0  0  0
   -0.3731    2.1591    4.9173 C   0  0  2  0  0  0  0  0  0  0  0  0
   -0.9425    3.4165    5.6292 C   0  0  0  0  0  0  0  0  0  0  0  0
   -2.2826    3.2231    6.3765 C   0  0  0  0  0  0  0  0  0  0  0  0
   -1.3424    1.4990    3.9239 C   0  0  1  0  0  0  0  0  0  0  0  0
   -1.9041    2.3601    2.7668 C   0  0  0  0  0  0  0  0  0  0  0  0
   -3.1333    2.9445    3.1349 O   0  0  0  0  0  0  0  0  0  0  0  0
    0.9980    2.3524    4.0739 C   0  0  2  0  0  0  0  0  0  0  0  0
    1.2573    3.6611    3.6003 O   0  0  0  0  0  0  0  0  0  0  0  0
    2.0928    1.7752    4.9899 C   0  0  2  0  0  0  0  0  0  0  0  0
    3.5277    1.5340    4.7594 N   0  0  1  0  0  0  0  0  0  0  0  0
    4.5032    2.3104    5.5763 C   0  0  0  0  0  0  0  0  0  0  0  0
    3.2526    0.1760    5.3295 C   0  0  0  0  0  0  0  0  0  0  0  0
    1.9155    0.2994    4.6184 C   0  0  2  0  0  0  0  0  0  0  0  0
    3.7989   -2.6415    1.3948 C   0  0  1  0  0  0  0  0  0  0  0  0
    2.7420   -2.7020    0.6168 O   0  0  0  0  0  0  0  0  0  0  0  0
    3.7573   -1.8064   -4.0392 H   0  0  0  0  0  0  0  0  0  0  0  0
    5.4125   -2.4031   -3.8505 H   0  0  0  0  0  0  0  0  0  0  0  0
    4.7199   -1.2916   -2.6658 H   0  0  0  0  0  0  0  0  0  0  0  0
    3.0503   -3.0758   -2.0358 H   0  0  0  0  0  0  0  0  0  0  0  0
    3.7544   -4.1399   -3.2294 H   0  0  0  0  0  0  0  0  0  0  0  0
    4.4810   -4.6864   -0.8827 H   0  0  0  0  0  0  0  0  0  0  0  0
    5.8114   -4.3467   -1.9696 H   0  0  0  0  0  0  0  0  0  0  0  0
    6.4267   -2.3672   -0.9365 H   0  0  0  0  0  0  0  0  0  0  0  0
    3.5827   -1.8720    3.3702 H   0  0  0  0  0  0  0  0  0  0  0  0
    2.3341   -0.1912    1.1193 H   0  0  0  0  0  0  0  0  0  0  0  0
    0.6400    1.6239    1.9267 H   0  0  0  0  0  0  0  0  0  0  0  0
   -0.6494   -0.3285    2.8909 H   0  0  0  0  0  0  0  0  0  0  0  0
    0.2536   -1.1418    5.0842 H   0  0  0  0  0  0  0  0  0  0  0  0
   -1.2246    0.4984    6.1420 H   0  0  0  0  0  0  0  0  0  0  0  0
    1.1157    0.0742    8.7912 H   0  0  0  0  0  0  0  0  0  0  0  0
    1.1975   -0.8811    7.3248 H   0  0  0  0  0  0  0  0  0  0  0  0
   -0.3581   -0.6090    8.1098 H   0  0  0  0  0  0  0  0  0  0  0  0
   -0.1946    3.7807    6.3349 H   0  0  0  0  0  0  0  0  0  0  0  0
   -1.0756    4.2147    4.8967 H   0  0  0  0  0  0  0  0  0  0  0  0
   -2.5781    4.1422    6.8811 H   0  0  0  0  0  0  0  0  0  0  0  0
   -2.2190    2.4467    7.1362 H   0  0  0  0  0  0  0  0  0  0  0  0
   -3.0962    2.9567    5.7045 H   0  0  0  0  0  0  0  0  0  0  0  0
   -2.1988    1.0073    4.3955 H   0  0  0  0  0  0  0  0  0  0  0  0
   -1.2187    3.1491    2.4728 H   0  0  0  0  0  0  0  0  0  0  0  0
   -2.1032    1.7396    1.8950 H   0  0  0  0  0  0  0  0  0  0  0  0
   -3.7760    2.2501    3.1938 H   0  0  0  0  0  0  0  0  0  0  0  0
    0.8034    3.8010    2.7729 H   0  0  0  0  0  0  0  0  0  0  0  0
    2.0237    2.1138    6.0233 H   0  0  0  0  0  0  0  0  0  0  0  0
    4.2479    2.2999    6.6302 H   0  0  0  0  0  0  0  0  0  0  0  0
    4.5739    3.3334    5.2458 H   0  0  0  0  0  0  0  0  0  0  0  0
    5.4764    1.8482    5.4921 H   0  0  0  0  0  0  0  0  0  0  0  0
    3.9240   -0.5970    4.9831 H   0  0  0  0  0  0  0  0  0  0  0  0
    3.1675    0.1533    6.4142 H   0  0  0  0  0  0  0  0  0  0  0  0
    4.1103   -3.5002    2.0090 H   0  0  0  0  0  0  0  0  0  0  0  0
    3.7601    1.4686    3.7644 H   0  0  0  0  0  0  0  0  0  0  0  0
  1  2  1  0
  1 33  1  0
  1 34  1  0
  1 35  1  0
  2  3  1  0
  2 36  1  0
  2 37  1  0
  3  4  1  0
  3 38  1  0
  3 39  1  0
  4  5  2  3
  4 40  1  0
  5 31  1  0
  5  6  1  0
  6  7  1  0
  7  8  2  0
  7  9  1  0
  9 10  1  0
  9 31  1  0
  9 41  1  1
 10 11  2  3
 10 42  1  0
 11 30  1  0
 11 12  1  0
 12 24  1  0
 12 13  1  0
 12 43  1  6
 13 21  1  0
 13 14  1  0
 13 44  1  6
 14 30  1  0
 14 15  1  0
 14 45  1  1
 15 16  1  0
 15 18  1  0
 15 46  1  1
 16 17  1  0
 17 47  1  0
 17 48  1  0
 17 49  1  0
 18 19  1  1
 18 21  1  0
 18 24  1  0
 19 20  1  0
 19 50  1  0
 19 51  1  0
 20 52  1  0
 20 53  1  0
 20 54  1  0
 21 22  1  0
 21 55  1  1
 22 23  1  0
 22 56  1  0
 22 57  1  0
 23 58  1  0
 24 25  1  6
 24 26  1  0
 25 59  1  0
 26 30  1  0
 26 27  1  0
 26 60  1  1
 27 28  1  0
 27 29  1  0
 27 67  1  6
 28 61  1  0
 28 62  1  0
 28 63  1  0
 30 29  1  1
 29 64  1  0
 29 65  1  0
 31 32  1  0
 31 66  1  1
M  CHG  2  27   1  32  -1
M  END
>  <i_m_ct_stereo_status>  (104) 
1

>  <s_m_source_file>  (104) 
/var/tmp/pbs.5076255.sched01/tmpbrsd6n1o/39u_ie0p0h.sdf

>  <i_m_source_file_index>  (104) 
2

>  <i_lp_mmshare_version>  (104) 
48012

>  <i_f3d_flags>  (104) 
0

>  <s_epik_input>  (104) 
W0NIM11bQ0gyXVtDSDJdL1tDSF09QzFcT0MoPU8pW0NASF0oW0NASF0xW09IXSkvW0NIXT1DMlxbQ0BASF0oW0NASF0zW0NASF00W0NAQF0yNTYpW0NAXShbT0hdKShbQ0BASF01TihbQ0gzXSlbQ0gyXTYpW0NAXShbQ0gyXVtDSDNdKShbQ0BASF00T1tDSDNdKVtDQEhdM1tDSDJdW09IXQ==

>  <s_epik_cmdline>  (104) 
J2VwaWtfcHl0aG9uJywgJy1waHQnLCAnMi4wJywgJy1waCcsICc3LjAnLCAnLXRuJywgJzgnLCAnLW1hJywgJzIwMCcsICctaW1hZScsICc8aW5maWxlLm1hZT4nLCAnLW9tYWUnLCAnPG91dGZpbGUubWFlPic=

>  <r_epik_Ionization_Penalty>  (104) 
2.35342

>  <r_epik_Ionization_Penalty_Charging>  (104) 
2.35342

>  <r_epik_Ionization_Penalty_Neutral>  (104) 
2.08966e-07

>  <r_epik_State_Penalty>  (104) 
2.51048

>  <r_epik_Charging_Adjusted_Penalty>  (104) 
4.8639

>  <i_epik_Tot_Q>  (104) 
0

>  <i_epik_Tot_abs_Q>  (104) 
2

>  <s_lp_Force_Field>  (104) 
OPLS3e

>  <r_lp_Energy>  (104) 
118.839

>  <b_lp_Chiralities_Consistent>  (104) 
1

>  <s_lp_Variant>  (104) 
32:0-3

>  <s_i_glide_gridfile>  (104) 
pfpi4k_grid

>  <i_i_glide_lignum>  (104) 
2

>  <i_i_glide_rotatable_bonds>  (104) 
8

>  <r_i_docking_score>  (104) 
-3.30941

>  <r_i_glide_ligand_efficiency>  (104) 
-0.103419

>  <r_i_glide_ligand_efficiency_sa>  (104) 
-0.328335

>  <r_i_glide_ligand_efficiency_ln>  (104) 
-0.741066

>  <r_i_glide_gscore>  (104) 
-3.30941

>  <r_i_glide_lipo>  (104) 
-0.227619

>  <r_i_glide_hbond>  (104) 
-0.47063

>  <r_i_glide_metal>  (104) 
-0

>  <r_i_glide_rewards>  (104) 
-1.03706

>  <r_i_glide_evdw>  (104) 
-25.2034

>  <r_i_glide_ecoul>  (104) 
-4.07949

>  <r_i_glide_erotb>  (104) 
0.302384

>  <r_i_glide_esite>  (104) 
-0.0043849

>  <r_i_glide_emodel>  (104) 
-38.7127

>  <r_i_glide_energy>  (104) 
-29.2829

>  <r_i_glide_einternal>  (104) 
4.66967

>  <r_i_glide_intrahb_reward>  (104) 
-0.5

>  <i_i_glide_confnum>  (104) 
3

>  <i_i_glide_posenum>  (104) 
36

>  <r_i_glide_eff_state_penalty>  (104) 
0

>  <ligand_id>  (104) 
32

>  <original_smiles>  (104) 
CCCC=C1OC(=O)C(C=C2C3C4C5C(OC)C(CC)(C4CO)C3(O)C3N(C)CC253)C1O

>  <smiles>  (104) 
[H]OC([H])([H])C1([H])C2([H])C3([H])C(=C([H])C4([H])C(=O)OC(=C([H])C([H])([H])C([H])([H])C([H])([H])[H])C4([H])[O-])C45C2([H])C([H])(OC([H])([H])[H])C1(C([H])([H])C([H])([H])[H])C3(O[H])C4([H])[N+]([H])(C([H])([H])[H])C5([H])[H]

$$$$
32:2:1
     RDKit          3D

 67 72  0  0  1  0  0  0  0  0999 V2000
    1.4443  -10.2207    4.5686 C   0  0  0  0  0  0  0  0  0  0  0  0
    0.7420  -10.3018    3.2086 C   0  0  0  0  0  0  0  0  0  0  0  0
    0.3424   -8.9237    2.6673 C   0  0  0  0  0  0  0  0  0  0  0  0
    1.5555   -8.1071    2.2802 C   0  0  0  0  0  0  0  0  0  0  0  0
    2.0529   -6.9554    2.7584 C   0  0  0  0  0  0  0  0  0  0  0  0
    3.1261   -6.4104    2.1808 O   0  0  0  0  0  0  0  0  0  0  0  0
    3.4059   -5.1998    2.6538 C   0  0  0  0  0  0  0  0  0  0  0  0
    4.3496   -4.4968    2.2894 O   0  0  0  0  0  0  0  0  0  0  0  0
    2.3821   -4.7608    3.6780 C   0  0  1  0  0  0  0  0  0  0  0  0
    1.6917   -3.5016    3.1399 C   0  0  0  0  0  0  0  0  0  0  0  0
    1.9921   -2.2036    3.3630 C   0  0  0  0  0  0  0  0  0  0  0  0
    1.2869   -0.9878    2.9015 C   0  0  1  0  0  0  0  0  0  0  0  0
    0.7609   -0.4966    4.2478 C   0  0  1  0  0  0  0  0  0  0  0  0
    2.0889   -0.6503    5.1318 C   0  0  2  0  0  0  0  0  0  0  0  0
    2.4856    0.8409    5.1311 C   0  0  1  0  0  0  0  0  0  0  0  0
    3.8525    1.1168    5.4535 O   0  0  0  0  0  0  0  0  0  0  0  0
    4.2315    0.7336    6.7671 C   0  0  0  0  0  0  0  0  0  0  0  0
    1.9711    1.2463    3.6843 C   0  0  2  0  0  0  0  0  0  0  0  0
    2.3049    2.7134    3.2973 C   0  0  0  0  0  0  0  0  0  0  0  0
    1.8329    3.7966    4.2933 C   0  0  0  0  0  0  0  0  0  0  0  0
    0.4812    0.9881    3.9690 C   0  0  1  0  0  0  0  0  0  0  0  0
   -0.5583    1.3228    2.8589 C   0  0  0  0  0  0  0  0  0  0  0  0
   -0.9370    2.6872    2.8620 O   0  0  0  0  0  0  0  0  0  0  0  0
    2.3818    0.0969    2.6169 C   0  0  2  0  0  0  0  0  0  0  0  0
    2.4558    0.5281    1.2784 O   0  0  0  0  0  0  0  0  0  0  0  0
    3.6733   -0.5056    3.1840 C   0  0  2  0  0  0  0  0  0  0  0  0
    4.4510   -1.6785    2.7499 N   0  0  1  0  0  0  0  0  0  0  0  0
    5.8250   -1.4233    2.2424 C   0  0  0  0  0  0  0  0  0  0  0  0
    4.4289   -2.0565    4.2093 C   0  0  0  0  0  0  0  0  0  0  0  0
    3.0254   -1.4763    4.1786 C   0  0  2  0  0  0  0  0  0  0  0  0
    1.5371   -6.0399    3.8605 C   0  0  1  0  0  0  0  0  0  0  0  0
    0.2538   -5.8282    3.6535 O   0  0  0  0  0  0  0  0  0  0  0  0
    1.6832  -11.2154    4.9452 H   0  0  0  0  0  0  0  0  0  0  0  0
    0.8004   -9.7347    5.3023 H   0  0  0  0  0  0  0  0  0  0  0  0
    2.3734   -9.6521    4.5089 H   0  0  0  0  0  0  0  0  0  0  0  0
    1.3779  -10.8260    2.4889 H   0  0  0  0  0  0  0  0  0  0  0  0
   -0.1589  -10.8981    3.3171 H   0  0  0  0  0  0  0  0  0  0  0  0
   -0.2673   -9.0436    1.7704 H   0  0  0  0  0  0  0  0  0  0  0  0
   -0.2925   -8.3963    3.3850 H   0  0  0  0  0  0  0  0  0  0  0  0
    2.1229   -8.5318    1.4556 H   0  0  0  0  0  0  0  0  0  0  0  0
    2.8447   -4.4959    4.6267 H   0  0  0  0  0  0  0  0  0  0  0  0
    0.8362   -3.6765    2.5079 H   0  0  0  0  0  0  0  0  0  0  0  0
    0.5343   -1.1475    2.1298 H   0  0  0  0  0  0  0  0  0  0  0  0
   -0.0936   -1.0600    4.6193 H   0  0  0  0  0  0  0  0  0  0  0  0
    1.9312   -1.0946    6.1095 H   0  0  0  0  0  0  0  0  0  0  0  0
    1.9192    1.3474    5.9070 H   0  0  0  0  0  0  0  0  0  0  0  0
    5.2833    0.9665    6.9207 H   0  0  0  0  0  0  0  0  0  0  0  0
    4.1068   -0.3359    6.9423 H   0  0  0  0  0  0  0  0  0  0  0  0
    3.6542    1.2767    7.5149 H   0  0  0  0  0  0  0  0  0  0  0  0
    3.3853    2.7937    3.1717 H   0  0  0  0  0  0  0  0  0  0  0  0
    1.8780    2.9374    2.3188 H   0  0  0  0  0  0  0  0  0  0  0  0
    2.1376    4.7843    3.9511 H   0  0  0  0  0  0  0  0  0  0  0  0
    2.2449    3.6458    5.2890 H   0  0  0  0  0  0  0  0  0  0  0  0
    0.7508    3.8279    4.3987 H   0  0  0  0  0  0  0  0  0  0  0  0
    0.1205    1.4686    4.8819 H   0  0  0  0  0  0  0  0  0  0  0  0
   -0.2208    1.0626    1.8561 H   0  0  0  0  0  0  0  0  0  0  0  0
   -1.4720    0.7635    3.0558 H   0  0  0  0  0  0  0  0  0  0  0  0
   -0.3870    3.1780    2.2503 H   0  0  0  0  0  0  0  0  0  0  0  0
    1.8292    0.0329    0.7446 H   0  0  0  0  0  0  0  0  0  0  0  0
    4.4029    0.2255    3.5040 H   0  0  0  0  0  0  0  0  0  0  0  0
    6.4007   -0.7652    2.8997 H   0  0  0  0  0  0  0  0  0  0  0  0
    5.8341   -0.9916    1.2419 H   0  0  0  0  0  0  0  0  0  0  0  0
    6.3576   -2.3724    2.1994 H   0  0  0  0  0  0  0  0  0  0  0  0
    4.4938   -3.1186    4.3948 H   0  0  0  0  0  0  0  0  0  0  0  0
    5.1158   -1.5020    4.8369 H   0  0  0  0  0  0  0  0  0  0  0  0
    1.9483   -6.5020    4.7619 H   0  0  0  0  0  0  0  0  0  0  0  0
    3.9030   -2.3284    2.2090 H   0  0  0  0  0  0  0  0  0  0  0  0
  1  2  1  0
  1 33  1  0
  1 34  1  0
  1 35  1  0
  2  3  1  0
  2 36  1  0
  2 37  1  0
  3  4  1  0
  3 38  1  0
  3 39  1  0
  4  5  2  3
  4 40  1  0
  5 31  1  0
  5  6  1  0
  6  7  1  0
  7  8  2  0
  7  9  1  0
  9 10  1  0
  9 31  1  0
  9 41  1  1
 10 11  2  3
 10 42  1  0
 11 30  1  0
 11 12  1  0
 12 24  1  0
 12 13  1  0
 12 43  1  6
 13 21  1  0
 13 14  1  0
 13 44  1  1
 14 30  1  0
 14 15  1  0
 14 45  1  1
 15 16  1  0
 15 18  1  0
 15 46  1  1
 16 17  1  0
 17 47  1  0
 17 48  1  0
 17 49  1  0
 18 19  1  6
 18 21  1  0
 18 24  1  0
 19 20  1  0
 19 50  1  0
 19 51  1  0
 20 52  1  0
 20 53  1  0
 20 54  1  0
 21 22  1  0
 21 55  1  1
 22 23  1  0
 22 56  1  0
 22 57  1  0
 23 58  1  0
 24 25  1  6
 24 26  1  0
 25 59  1  0
 26 30  1  0
 26 27  1  0
 26 60  1  1
 27 28  1  0
 27 29  1  0
 27 67  1  6
 28 61  1  0
 28 62  1  0
 28 63  1  0
 30 29  1  1
 29 64  1  0
 29 65  1  0
 31 32  1  0
 31 66  1  1
M  CHG  2  27   1  32  -1
M  END
>  <i_m_ct_stereo_status>  (105) 
1

>  <s_m_source_file>  (105) 
/var/tmp/pbs.5076255.sched01/tmpbrsd6n1o/39u_ie0p0h.sdf

>  <i_m_source_file_index>  (105) 
2

>  <i_lp_mmshare_version>  (105) 
48012

>  <i_f3d_flags>  (105) 
0

>  <s_epik_input>  (105) 
W0NIM11bQ0gyXVtDSDJdL1tDSF09QzFcT0MoPU8pW0NASF0oW0NASF0xW09IXSkvW0NIXT1DMlxbQ0BASF0oW0NASF0zW0NASF00W0NAQF0yNTYpW0NAXShbT0hdKShbQ0BASF01TihbQ0gzXSlbQ0gyXTYpW0NAXShbQ0gyXVtDSDNdKShbQ0BASF00T1tDSDNdKVtDQEhdM1tDSDJdW09IXQ==

>  <s_epik_cmdline>  (105) 
J2VwaWtfcHl0aG9uJywgJy1waHQnLCAnMi4wJywgJy1waCcsICc3LjAnLCAnLXRuJywgJzgnLCAnLW1hJywgJzIwMCcsICctaW1hZScsICc8aW5maWxlLm1hZT4nLCAnLW9tYWUnLCAnPG91dGZpbGUubWFlPic=

>  <r_epik_Ionization_Penalty>  (105) 
2.35342

>  <r_epik_Ionization_Penalty_Charging>  (105) 
2.35342

>  <r_epik_Ionization_Penalty_Neutral>  (105) 
2.08966e-07

>  <r_epik_State_Penalty>  (105) 
2.51048

>  <r_epik_Charging_Adjusted_Penalty>  (105) 
4.8639

>  <i_epik_Tot_Q>  (105) 
0

>  <i_epik_Tot_abs_Q>  (105) 
2

>  <s_lp_Force_Field>  (105) 
OPLS3e

>  <r_lp_Energy>  (105) 
118.839

>  <b_lp_Chiralities_Consistent>  (105) 
1

>  <s_lp_Variant>  (105) 
32:0-3

>  <s_i_glide_gridfile>  (105) 
pfpi4k_grid

>  <i_i_glide_lignum>  (105) 
2

>  <i_i_glide_rotatable_bonds>  (105) 
8

>  <r_i_docking_score>  (105) 
-3.30807

>  <r_i_glide_ligand_efficiency>  (105) 
-0.103377

>  <r_i_glide_ligand_efficiency_sa>  (105) 
-0.328202

>  <r_i_glide_ligand_efficiency_ln>  (105) 
-0.740766

>  <r_i_glide_gscore>  (105) 
-3.30807

>  <r_i_glide_lipo>  (105) 
-0.250392

>  <r_i_glide_hbond>  (105) 
-0.318042

>  <r_i_glide_metal>  (105) 
-0

>  <r_i_glide_rewards>  (105) 
-0.87126

>  <r_i_glide_evdw>  (105) 
-20.6309

>  <r_i_glide_ecoul>  (105) 
-7.59475

>  <r_i_glide_erotb>  (105) 
0.302384

>  <r_i_glide_esite>  (105) 
0

>  <r_i_glide_emodel>  (105) 
-37.9368

>  <r_i_glide_energy>  (105) 
-28.2256

>  <r_i_glide_einternal>  (105) 
4.00975

>  <r_i_glide_intrahb_reward>  (105) 
-0.5

>  <i_i_glide_confnum>  (105) 
6

>  <i_i_glide_posenum>  (105) 
32

>  <r_i_glide_eff_state_penalty>  (105) 
0

>  <ligand_id>  (105) 
32

>  <original_smiles>  (105) 
CCCC=C1OC(=O)C(C=C2C3C4C5C(OC)C(CC)(C4CO)C3(O)C3N(C)CC253)C1O

>  <smiles>  (105) 
[H]OC([H])([H])C1([H])C2([H])C3([H])C(=C([H])C4([H])C(=O)OC(=C([H])C([H])([H])C([H])([H])C([H])([H])[H])C4([H])[O-])C45C2([H])C([H])(OC([H])([H])[H])C1(C([H])([H])C([H])([H])[H])C3(O[H])C4([H])[N+]([H])(C([H])([H])[H])C5([H])[H]

$$$$
32:2:2
     RDKit          3D

 67 72  0  0  1  0  0  0  0  0999 V2000
    1.4942  -10.0231    3.8841 C   0  0  0  0  0  0  0  0  0  0  0  0
    0.3274   -9.9066    2.8970 C   0  0  0  0  0  0  0  0  0  0  0  0
   -0.1000   -8.4501    2.6465 C   0  0  0  0  0  0  0  0  0  0  0  0
    0.9799   -7.6561    1.9272 C   0  0  0  0  0  0  0  0  0  0  0  0
    1.6594   -6.5539    2.3149 C   0  0  0  0  0  0  0  0  0  0  0  0
    2.5605   -5.9954    1.4542 O   0  0  0  0  0  0  0  0  0  0  0  0
    3.0353   -4.8340    1.9035 C   0  0  0  0  0  0  0  0  0  0  0  0
    3.8730   -4.1179    1.3447 O   0  0  0  0  0  0  0  0  0  0  0  0
    2.3764   -4.4467    3.2213 C   0  0  1  0  0  0  0  0  0  0  0  0
    1.6175   -3.1314    3.0063 C   0  0  0  0  0  0  0  0  0  0  0  0
    1.9858   -1.8847    3.3606 C   0  0  0  0  0  0  0  0  0  0  0  0
    1.2250   -0.6249    3.2207 C   0  0  1  0  0  0  0  0  0  0  0  0
    0.9291   -0.3693    4.6972 C   0  0  1  0  0  0  0  0  0  0  0  0
    2.3766   -0.6446    5.3210 C   0  0  2  0  0  0  0  0  0  0  0  0
    2.7880    0.8313    5.5171 C   0  0  1  0  0  0  0  0  0  0  0  0
    4.1873    1.0667    5.6684 O   0  0  0  0  0  0  0  0  0  0  0  0
    4.7528    0.5125    6.8491 C   0  0  0  0  0  0  0  0  0  0  0  0
    2.0611    1.4608    4.2506 C   0  0  2  0  0  0  0  0  0  0  0  0
    2.3457    2.9767    4.0600 C   0  0  0  0  0  0  0  0  0  0  0  0
    2.0395    3.8715    5.2814 C   0  0  0  0  0  0  0  0  0  0  0  0
    0.6338    1.1308    4.7136 C   0  0  1  0  0  0  0  0  0  0  0  0
   -0.5511    1.6446    3.8521 C   0  0  0  0  0  0  0  0  0  0  0  0
   -1.7658    1.1200    4.3543 O   0  0  0  0  0  0  0  0  0  0  0  0
    2.2913    0.5062    2.9548 C   0  0  2  0  0  0  0  0  0  0  0  0
    2.1934    1.1456    1.7010 O   0  0  0  0  0  0  0  0  0  0  0  0
    3.6544   -0.1681    3.2025 C   0  0  2  0  0  0  0  0  0  0  0  0
    4.3494   -1.2444    2.4770 N   0  0  1  0  0  0  0  0  0  0  0  0
    5.6385   -0.9047    1.8270 C   0  0  0  0  0  0  0  0  0  0  0  0
    4.5286   -1.8561    3.8204 C   0  0  0  0  0  0  0  0  0  0  0  0
    3.1457   -1.2906    4.1225 C   0  0  2  0  0  0  0  0  0  0  0  0
    1.5810   -5.7200    3.5794 C   0  0  1  0  0  0  0  0  0  0  0  0
    0.3234   -5.4601    3.8564 O   0  0  0  0  0  0  0  0  0  0  0  0
    1.7553  -11.0677    4.0533 H   0  0  0  0  0  0  0  0  0  0  0  0
    1.2324   -9.5829    4.8467 H   0  0  0  0  0  0  0  0  0  0  0  0
    2.3849   -9.5146    3.5127 H   0  0  0  0  0  0  0  0  0  0  0  0
    0.5977  -10.3912    1.9582 H   0  0  0  0  0  0  0  0  0  0  0  0
   -0.5270  -10.4565    3.2886 H   0  0  0  0  0  0  0  0  0  0  0  0
   -0.9853   -8.4466    2.0048 H   0  0  0  0  0  0  0  0  0  0  0  0
   -0.4016   -7.9834    3.5852 H   0  0  0  0  0  0  0  0  0  0  0  0
    1.2267   -8.0470    0.9541 H   0  0  0  0  0  0  0  0  0  0  0  0
    3.1349   -4.3012    3.9856 H   0  0  0  0  0  0  0  0  0  0  0  0
    0.6600   -3.2149    2.5135 H   0  0  0  0  0  0  0  0  0  0  0  0
    0.3577   -0.6738    2.5600 H   0  0  0  0  0  0  0  0  0  0  0  0
    0.1369   -0.9994    5.1013 H   0  0  0  0  0  0  0  0  0  0  0  0
    2.3663   -1.2493    6.2290 H   0  0  0  0  0  0  0  0  0  0  0  0
    2.3537    1.2045    6.4447 H   0  0  0  0  0  0  0  0  0  0  0  0
    5.8207    0.7275    6.8746 H   0  0  0  0  0  0  0  0  0  0  0  0
    4.6384   -0.5715    6.8968 H   0  0  0  0  0  0  0  0  0  0  0  0
    4.3052    0.9477    7.7428 H   0  0  0  0  0  0  0  0  0  0  0  0
    3.3928    3.1018    3.7845 H   0  0  0  0  0  0  0  0  0  0  0  0
    1.7699    3.3569    3.2134 H   0  0  0  0  0  0  0  0  0  0  0  0
    2.3109    4.9063    5.0745 H   0  0  0  0  0  0  0  0  0  0  0  0
    2.5988    3.5641    6.1638 H   0  0  0  0  0  0  0  0  0  0  0  0
    0.9798    3.8628    5.5346 H   0  0  0  0  0  0  0  0  0  0  0  0
    0.4260    1.4696    5.7300 H   0  0  0  0  0  0  0  0  0  0  0  0
   -0.6062    2.7316    3.9104 H   0  0  0  0  0  0  0  0  0  0  0  0
   -0.4650    1.4111    2.7950 H   0  0  0  0  0  0  0  0  0  0  0  0
   -2.4460    1.2258    3.6995 H   0  0  0  0  0  0  0  0  0  0  0  0
    1.3170    1.4859    1.5821 H   0  0  0  0  0  0  0  0  0  0  0  0
    4.4238    0.5222    3.5264 H   0  0  0  0  0  0  0  0  0  0  0  0
    6.3065   -0.3615    2.5037 H   0  0  0  0  0  0  0  0  0  0  0  0
    5.5003   -0.3028    0.9210 H   0  0  0  0  0  0  0  0  0  0  0  0
    6.1631   -1.8250    1.5446 H   0  0  0  0  0  0  0  0  0  0  0  0
    4.6296   -2.9373    3.7987 H   0  0  0  0  0  0  0  0  0  0  0  0
    5.3049   -1.4068    4.4397 H   0  0  0  0  0  0  0  0  0  0  0  0
    2.2145   -6.2519    4.2832 H   0  0  0  0  0  0  0  0  0  0  0  0
    3.7216   -1.7916    1.9002 H   0  0  0  0  0  0  0  0  0  0  0  0
  1  2  1  0
  1 33  1  0
  1 34  1  0
  1 35  1  0
  2  3  1  0
  2 36  1  0
  2 37  1  0
  3  4  1  0
  3 38  1  0
  3 39  1  0
  4  5  2  3
  4 40  1  0
  5 31  1  0
  5  6  1  0
  6  7  1  0
  7  8  2  0
  7  9  1  0
  9 10  1  0
  9 31  1  0
  9 41  1  1
 10 11  2  3
 10 42  1  0
 11 30  1  0
 11 12  1  0
 12 24  1  0
 12 13  1  0
 12 43  1  6
 13 21  1  0
 13 14  1  0
 13 44  1  1
 14 30  1  0
 14 15  1  0
 14 45  1  1
 15 16  1  0
 15 18  1  0
 15 46  1  1
 16 17  1  0
 17 47  1  0
 17 48  1  0
 17 49  1  0
 18 19  1  6
 18 21  1  0
 18 24  1  0
 19 20  1  0
 19 50  1  0
 19 51  1  0
 20 52  1  0
 20 53  1  0
 20 54  1  0
 21 22  1  0
 21 55  1  1
 22 23  1  0
 22 56  1  0
 22 57  1  0
 23 58  1  0
 24 25  1  6
 24 26  1  0
 25 59  1  0
 26 30  1  0
 26 27  1  0
 26 60  1  1
 27 28  1  0
 27 29  1  0
 27 67  1  6
 28 61  1  0
 28 62  1  0
 28 63  1  0
 30 29  1  1
 29 64  1  0
 29 65  1  0
 31 32  1  0
 31 66  1  1
M  CHG  2  27   1  32  -1
M  END
>  <i_m_ct_stereo_status>  (106) 
1

>  <s_m_source_file>  (106) 
/var/tmp/pbs.5076255.sched01/tmpbrsd6n1o/39u_ie0p0h.sdf

>  <i_m_source_file_index>  (106) 
2

>  <i_lp_mmshare_version>  (106) 
48012

>  <i_f3d_flags>  (106) 
0

>  <s_epik_input>  (106) 
W0NIM11bQ0gyXVtDSDJdL1tDSF09QzFcT0MoPU8pW0NASF0oW0NASF0xW09IXSkvW0NIXT1DMlxbQ0BASF0oW0NASF0zW0NASF00W0NAQF0yNTYpW0NAXShbT0hdKShbQ0BASF01TihbQ0gzXSlbQ0gyXTYpW0NAXShbQ0gyXVtDSDNdKShbQ0BASF00T1tDSDNdKVtDQEhdM1tDSDJdW09IXQ==

>  <s_epik_cmdline>  (106) 
J2VwaWtfcHl0aG9uJywgJy1waHQnLCAnMi4wJywgJy1waCcsICc3LjAnLCAnLXRuJywgJzgnLCAnLW1hJywgJzIwMCcsICctaW1hZScsICc8aW5maWxlLm1hZT4nLCAnLW9tYWUnLCAnPG91dGZpbGUubWFlPic=

>  <r_epik_Ionization_Penalty>  (106) 
2.35342

>  <r_epik_Ionization_Penalty_Charging>  (106) 
2.35342

>  <r_epik_Ionization_Penalty_Neutral>  (106) 
2.08966e-07

>  <r_epik_State_Penalty>  (106) 
2.51048

>  <r_epik_Charging_Adjusted_Penalty>  (106) 
4.8639

>  <i_epik_Tot_Q>  (106) 
0

>  <i_epik_Tot_abs_Q>  (106) 
2

>  <s_lp_Force_Field>  (106) 
OPLS3e

>  <r_lp_Energy>  (106) 
118.839

>  <b_lp_Chiralities_Consistent>  (106) 
1

>  <s_lp_Variant>  (106) 
32:0-3

>  <s_i_glide_gridfile>  (106) 
pfpi4k_grid

>  <i_i_glide_lignum>  (106) 
2

>  <i_i_glide_rotatable_bonds>  (106) 
8

>  <r_i_docking_score>  (106) 
-2.81951

>  <r_i_glide_ligand_efficiency>  (106) 
-0.0881097

>  <r_i_glide_ligand_efficiency_sa>  (106) 
-0.279731

>  <r_i_glide_ligand_efficiency_ln>  (106) 
-0.631365

>  <r_i_glide_gscore>  (106) 
-2.81951

>  <r_i_glide_lipo>  (106) 
-0.170048

>  <r_i_glide_hbond>  (106) 
-0.260725

>  <r_i_glide_metal>  (106) 
-0

>  <r_i_glide_rewards>  (106) 
-0.87126

>  <r_i_glide_evdw>  (106) 
-21.203

>  <r_i_glide_ecoul>  (106) 
-5.0529

>  <r_i_glide_erotb>  (106) 
0.302384

>  <r_i_glide_esite>  (106) 
-0.00177625

>  <r_i_glide_emodel>  (106) 
-36.24

>  <r_i_glide_energy>  (106) 
-26.2559

>  <r_i_glide_einternal>  (106) 
2.22181

>  <r_i_glide_intrahb_reward>  (106) 
-0.5

>  <i_i_glide_confnum>  (106) 
6

>  <i_i_glide_posenum>  (106) 
35

>  <r_i_glide_eff_state_penalty>  (106) 
0

>  <ligand_id>  (106) 
32

>  <original_smiles>  (106) 
CCCC=C1OC(=O)C(C=C2C3C4C5C(OC)C(CC)(C4CO)C3(O)C3N(C)CC253)C1O

>  <smiles>  (106) 
[H]OC([H])([H])C1([H])C2([H])C3([H])C(=C([H])C4([H])C(=O)OC(=C([H])C([H])([H])C([H])([H])C([H])([H])[H])C4([H])[O-])C45C2([H])C([H])(OC([H])([H])[H])C1(C([H])([H])C([H])([H])[H])C3(O[H])C4([H])[N+]([H])(C([H])([H])[H])C5([H])[H]

$$$$
33:0:0
     RDKit          3D

 67 72  0  0  1  0  0  0  0  0999 V2000
    9.7285   -4.5376    8.3332 C   0  0  0  0  0  0  0  0  0  0  0  0
    9.2451   -5.9991    8.3572 C   0  0  2  0  0  0  0  0  0  0  0  0
   10.3658   -7.0231    8.1615 C   0  0  0  0  0  0  0  0  0  0  0  0
    9.7793   -8.1340    7.4826 O   0  0  0  0  0  0  0  0  0  0  0  0
    8.5015   -7.8436    7.0111 C   0  0  2  0  0  0  0  0  0  0  0  0
    8.3631   -6.2993    7.1726 C   0  0  0  0  0  0  0  0  0  0  0  0
    7.5088   -8.4071    7.8524 O   0  0  0  0  0  0  0  0  0  0  0  0
    6.4804   -9.0113    7.0524 C   0  0  1  0  0  0  0  0  0  0  0  0
    5.0276   -8.7177    7.4832 C   0  0  1  0  0  0  0  0  0  0  0  0
    4.8111   -7.3248    7.6403 O   0  0  0  0  0  0  0  0  0  0  0  0
    4.0149   -9.2615    6.4280 C   0  0  0  0  0  0  0  0  0  0  0  0
    4.2846   -8.8895    4.9162 C   0  0  2  0  0  0  0  0  0  0  0  0
    3.9615   -7.3897    4.6348 C   0  0  0  0  0  0  0  0  0  0  0  0
    2.5003   -6.9759    4.9422 C   0  0  0  0  0  0  0  0  0  0  0  0
    1.4517   -8.0972    4.7713 C   0  0  1  0  0  0  0  0  0  0  0  0
    0.0580   -7.5431    4.4191 C   0  0  0  0  0  0  0  0  0  0  0  0
   -0.2885   -6.3812    4.7023 O   0  0  0  0  0  0  0  0  0  0  0  0
   -0.9125   -8.4885    3.7515 C   0  0  0  0  0  0  0  0  0  0  0  0
   -0.2637   -9.1064    2.5072 C   0  0  0  0  0  0  0  0  0  0  0  0
    1.1645   -9.5756    2.7544 C   0  0  0  0  0  0  0  0  0  0  0  0
    1.9449   -9.1756    3.7844 C   0  0  0  0  0  0  0  0  0  0  0  0
    3.3291   -9.6817    3.9890 C   0  0  0  0  0  0  0  0  0  0  0  0
    3.7694  -10.7592    3.2914 C   0  0  0  0  0  0  0  0  0  0  0  0
    5.1658  -11.3328    3.3454 C   0  0  1  0  0  0  0  0  0  0  0  0
    5.8138  -11.1347    2.0955 O   0  0  0  0  0  0  0  0  0  0  0  0
    6.0126  -10.7335    4.4653 C   0  0  0  0  0  0  0  0  0  0  0  0
    5.8038   -9.2063    4.5975 C   0  0  2  0  0  0  0  0  0  0  0  0
    6.7294   -8.5199    5.6445 C   0  0  2  0  0  0  0  0  0  0  0  0
    8.2610   -8.4346    5.5760 C   0  0  0  0  0  0  0  0  0  0  0  0
    8.7363   -7.4951    4.4415 C   0  0  0  0  0  0  0  0  0  0  0  0
    9.0200   -9.7768    5.4431 C   0  0  0  0  0  0  0  0  0  0  0  0
   10.2294   -4.2917    7.3953 H   0  0  0  0  0  0  0  0  0  0  0  0
   10.4338   -4.3295    9.1330 H   0  0  0  0  0  0  0  0  0  0  0  0
    8.8917   -3.8502    8.4238 H   0  0  0  0  0  0  0  0  0  0  0  0
    8.7099   -6.2241    9.2890 H   0  0  0  0  0  0  0  0  0  0  0  0
   11.1509   -6.6297    7.5086 H   0  0  0  0  0  0  0  0  0  0  0  0
   10.8324   -7.3094    9.1002 H   0  0  0  0  0  0  0  0  0  0  0  0
    7.3245   -6.0081    7.2995 H   0  0  0  0  0  0  0  0  0  0  0  0
    8.8069   -5.7688    6.3321 H   0  0  0  0  0  0  0  0  0  0  0  0
    6.6410  -10.0840    7.1159 H   0  0  0  0  0  0  0  0  0  0  0  0
    4.8298   -9.1921    8.4468 H   0  0  0  0  0  0  0  0  0  0  0  0
    3.9552   -7.1974    7.9920 H   0  0  0  0  0  0  0  0  0  0  0  0
    4.0125  -10.3477    6.5125 H   0  0  0  0  0  0  0  0  0  0  0  0
    3.0209   -8.9754    6.7526 H   0  0  0  0  0  0  0  0  0  0  0  0
    4.6090   -6.6927    5.1568 H   0  0  0  0  0  0  0  0  0  0  0  0
    4.1529   -7.2022    3.5762 H   0  0  0  0  0  0  0  0  0  0  0  0
    2.4429   -6.6083    5.9677 H   0  0  0  0  0  0  0  0  0  0  0  0
    2.2638   -6.1150    4.3152 H   0  0  0  0  0  0  0  0  0  0  0  0
    1.3076   -8.6097    5.7175 H   0  0  0  0  0  0  0  0  0  0  0  0
   -1.1383   -9.2762    4.4711 H   0  0  0  0  0  0  0  0  0  0  0  0
   -1.8485   -7.9940    3.5056 H   0  0  0  0  0  0  0  0  0  0  0  0
   -0.8573   -9.9682    2.1856 H   0  0  0  0  0  0  0  0  0  0  0  0
   -0.2669   -8.3908    1.6799 H   0  0  0  0  0  0  0  0  0  0  0  0
    1.5106  -10.2598    1.9982 H   0  0  0  0  0  0  0  0  0  0  0  0
    3.1242  -11.3168    2.6370 H   0  0  0  0  0  0  0  0  0  0  0  0
    5.0792  -12.4105    3.5001 H   0  0  0  0  0  0  0  0  0  0  0  0
    5.2268  -11.4844    1.4180 H   0  0  0  0  0  0  0  0  0  0  0  0
    5.7271  -11.2357    5.3904 H   0  0  0  0  0  0  0  0  0  0  0  0
    7.0399  -11.0108    4.2880 H   0  0  0  0  0  0  0  0  0  0  0  0
    6.0489   -8.7731    3.6269 H   0  0  0  0  0  0  0  0  0  0  0  0
    6.4408   -7.4777    5.6370 H   0  0  0  0  0  0  0  0  0  0  0  0
    8.6306   -7.9634    3.4677 H   0  0  0  0  0  0  0  0  0  0  0  0
    9.7906   -7.2479    4.5722 H   0  0  0  0  0  0  0  0  0  0  0  0
    8.1719   -6.5616    4.3995 H   0  0  0  0  0  0  0  0  0  0  0  0
    8.9652  -10.1654    4.4288 H   0  0  0  0  0  0  0  0  0  0  0  0
    8.6746  -10.5444    6.1307 H   0  0  0  0  0  0  0  0  0  0  0  0
   10.0854   -9.6482    5.6203 H   0  0  0  0  0  0  0  0  0  0  0  0
  1  2  1  0
  1 32  1  0
  1 33  1  0
  1 34  1  0
  2  6  1  0
  2  3  1  0
  2 35  1  1
  3  4  1  0
  3 36  1  0
  3 37  1  0
  5  4  1  1
  5 29  1  0
  5  6  1  0
  5  7  1  0
  6 38  1  0
  6 39  1  0
  7  8  1  0
  8 28  1  0
  8  9  1  0
  8 40  1  6
  9 10  1  0
  9 11  1  0
  9 41  1  1
 10 42  1  0
 12 11  1  1
 11 43  1  0
 11 44  1  0
 12 22  1  0
 12 27  1  0
 12 13  1  0
 13 14  1  0
 13 45  1  0
 13 46  1  0
 14 15  1  0
 14 47  1  0
 14 48  1  0
 15 21  1  0
 15 16  1  0
 15 49  1  1
 16 17  2  0
 16 18  1  0
 18 19  1  0
 18 50  1  0
 18 51  1  0
 19 20  1  0
 19 52  1  0
 19 53  1  0
 20 21  2  0
 20 54  1  0
 21 22  1  0
 22 23  2  0
 23 24  1  0
 23 55  1  0
 24 25  1  0
 24 26  1  0
 24 56  1  1
 25 57  1  0
 26 27  1  0
 26 58  1  0
 26 59  1  0
 27 28  1  0
 27 60  1  6
 28 29  1  0
 28 61  1  1
 29 30  1  0
 29 31  1  0
 30 62  1  0
 30 63  1  0
 30 64  1  0
 31 65  1  0
 31 66  1  0
 31 67  1  0
M  END
>  <i_m_ct_stereo_status>  (107) 
1

>  <s_m_source_file>  (107) 
/var/tmp/pbs.5076255.sched01/tmpbrsd6n1o/39u_ie0p0h.sdf

>  <i_m_source_file_index>  (107) 
3

>  <i_lp_mmshare_version>  (107) 
48012

>  <i_f3d_flags>  (107) 
0

>  <s_epik_input>  (107) 
W0NIM11bQ0BASF0oW0NIMl0xKVtDSDJdT1tDQEBdMTJPW0NAQEhdM1tDQEBIXShDMihbQ0gzXSlbQ0gzXSlbQ0BASF00W0NAXTUoW0NIMl1bQ0BASF0zW09IXSlDKD1bQ0hdW0NAQEhdKFtPSF0pW0NIMl00KUM2W0NAQEhdKFtDSDJdW0NIMl01KUMoPU8pW0NIMl1bQ0gyXVtDSF09Ng==

>  <s_epik_cmdline>  (107) 
J2VwaWtfcHl0aG9uJywgJy1waHQnLCAnMi4wJywgJy1waCcsICc3LjAnLCAnLXRuJywgJzgnLCAnLW1hJywgJzIwMCcsICctaW1hZScsICc8aW5maWxlLm1hZT4nLCAnLW9tYWUnLCAnPG91dGZpbGUubWFlPic=

>  <r_lp_tautomer_probability>  (107) 
1

>  <r_epik_Ionization_Penalty>  (107) 
1.18657e-07

>  <r_epik_Ionization_Penalty_Charging>  (107) 
0

>  <r_epik_Ionization_Penalty_Neutral>  (107) 
1.18657e-07

>  <r_epik_State_Penalty>  (107) 
-0

>  <r_epik_Charging_Adjusted_Penalty>  (107) 
0

>  <i_epik_Tot_Q>  (107) 
0

>  <i_epik_Tot_abs_Q>  (107) 
0

>  <s_lp_Force_Field>  (107) 
OPLS3e

>  <r_lp_Energy>  (107) 
34.8502

>  <b_lp_Chiralities_Consistent>  (107) 
1

>  <s_lp_Variant>  (107) 
33:0-1

>  <s_i_glide_gridfile>  (107) 
pfpi4k_grid

>  <i_i_glide_lignum>  (107) 
3

>  <i_i_glide_rotatable_bonds>  (107) 
2

>  <r_i_docking_score>  (107) 
-2.76751

>  <r_i_glide_ligand_efficiency>  (107) 
-0.0892747

>  <r_i_glide_ligand_efficiency_sa>  (107) 
-0.280446

>  <r_i_glide_ligand_efficiency_ln>  (107) 
-0.624159

>  <r_i_glide_gscore>  (107) 
-2.76751

>  <r_i_glide_lipo>  (107) 
-0.100059

>  <r_i_glide_hbond>  (107) 
-0.16

>  <r_i_glide_metal>  (107) 
-0

>  <r_i_glide_rewards>  (107) 
-0.487084

>  <r_i_glide_evdw>  (107) 
-19.7228

>  <r_i_glide_ecoul>  (107) 
-6.7003

>  <r_i_glide_erotb>  (107) 
0

>  <r_i_glide_esite>  (107) 
-0.0291883

>  <r_i_glide_emodel>  (107) 
-31.2587

>  <r_i_glide_energy>  (107) 
-26.4231

>  <r_i_glide_einternal>  (107) 
0.724923

>  <r_i_glide_intrahb_reward>  (107) 
-0

>  <i_i_glide_confnum>  (107) 
3

>  <i_i_glide_posenum>  (107) 
32

>  <r_i_glide_eff_state_penalty>  (107) 
0

>  <ligand_id>  (107) 
33

>  <original_smiles>  (107) 
CC1COC2(C1)OC1C(O)CC34CCC5C(=O)CCC=C5C3=CC(O)CC4C1C2(C)C

>  <smiles>  (107) 
[H]OC1([H])C([H])=C2C3=C([H])C([H])([H])C([H])([H])C(=O)C3([H])C([H])([H])C([H])([H])C23C([H])([H])C([H])(O[H])C2([H])OC4(OC([H])([H])C([H])(C([H])([H])[H])C4([H])[H])C(C([H])([H])[H])(C([H])([H])[H])C2([H])C3([H])C1([H])[H]

$$$$
33:0:1
     RDKit          3D

 67 72  0  0  1  0  0  0  0  0999 V2000
    9.5503   -4.8573    8.5168 C   0  0  0  0  0  0  0  0  0  0  0  0
    8.9620   -6.2781    8.6079 C   0  0  2  0  0  0  0  0  0  0  0  0
   10.0090   -7.3909    8.5169 C   0  0  0  0  0  0  0  0  0  0  0  0
    9.3666   -8.4965    7.8781 O   0  0  0  0  0  0  0  0  0  0  0  0
    8.1356   -8.1417    7.3337 C   0  0  2  0  0  0  0  0  0  0  0  0
    8.1057   -6.5837    7.4063 C   0  0  0  0  0  0  0  0  0  0  0  0
    7.0657   -8.5735    8.1598 O   0  0  0  0  0  0  0  0  0  0  0  0
    6.0364   -9.1689    7.3519 C   0  0  1  0  0  0  0  0  0  0  0  0
    4.5939   -8.7558    7.7060 C   0  0  1  0  0  0  0  0  0  0  0  0
    4.4969   -7.3482    7.8127 O   0  0  0  0  0  0  0  0  0  0  0  0
    3.5880   -9.2760    6.6330 C   0  0  0  0  0  0  0  0  0  0  0  0
    3.9455   -9.0146    5.1167 C   0  0  2  0  0  0  0  0  0  0  0  0
    3.7398   -7.5146    4.7408 C   0  0  0  0  0  0  0  0  0  0  0  0
    2.3000   -6.9844    4.9610 C   0  0  0  0  0  0  0  0  0  0  0  0
    1.1826   -8.0420    4.8068 C   0  0  1  0  0  0  0  0  0  0  0  0
   -0.1555   -7.4162    4.3706 C   0  0  0  0  0  0  0  0  0  0  0  0
   -0.4288   -6.2289    4.5803 O   0  0  0  0  0  0  0  0  0  0  0  0
   -1.1685   -8.3263    3.7124 C   0  0  0  0  0  0  0  0  0  0  0  0
   -0.5152   -9.0590    2.5373 C   0  0  0  0  0  0  0  0  0  0  0  0
    0.8656   -9.6109    2.8690 C   0  0  0  0  0  0  0  0  0  0  0  0
    1.6375   -9.2054    3.9081 C   0  0  0  0  0  0  0  0  0  0  0  0
    2.9713   -9.8022    4.1938 C   0  0  0  0  0  0  0  0  0  0  0  0
    3.3587  -10.9354    3.5764 C   0  0  0  0  0  0  0  0  0  0  0  0
    4.7047  -11.6035    3.7118 C   0  0  1  0  0  0  0  0  0  0  0  0
    5.4065  -11.5177    2.4814 O   0  0  0  0  0  0  0  0  0  0  0  0
    5.5483  -10.9993    4.8362 C   0  0  0  0  0  0  0  0  0  0  0  0
    5.4467   -9.4578    4.8818 C   0  0  2  0  0  0  0  0  0  0  0  0
    6.3775   -8.7770    5.9305 C   0  0  2  0  0  0  0  0  0  0  0  0
    7.9122   -8.7978    5.9261 C   0  0  0  0  0  0  0  0  0  0  0  0
    8.4978   -7.9642    4.7598 C   0  0  0  0  0  0  0  0  0  0  0  0
    8.5777  -10.1964    5.8994 C   0  0  0  0  0  0  0  0  0  0  0  0
   10.1077   -4.6986    7.5914 H   0  0  0  0  0  0  0  0  0  0  0  0
   10.2323   -4.6547    9.3354 H   0  0  0  0  0  0  0  0  0  0  0  0
    8.7615   -4.1109    8.5338 H   0  0  0  0  0  0  0  0  0  0  0  0
    8.3743   -6.4117    9.5252 H   0  0  0  0  0  0  0  0  0  0  0  0
   10.8460   -7.0944    7.8765 H   0  0  0  0  0  0  0  0  0  0  0  0
   10.4186   -7.6493    9.4908 H   0  0  0  0  0  0  0  0  0  0  0  0
    7.0840   -6.2148    7.4646 H   0  0  0  0  0  0  0  0  0  0  0  0
    8.6302   -6.1300    6.5646 H   0  0  0  0  0  0  0  0  0  0  0  0
    6.1250  -10.2452    7.4818 H   0  0  0  0  0  0  0  0  0  0  0  0
    4.3228   -9.1687    8.6793 H   0  0  0  0  0  0  0  0  0  0  0  0
    5.0803   -7.0802    8.4992 H   0  0  0  0  0  0  0  0  0  0  0  0
    3.5009  -10.3524    6.7770 H   0  0  0  0  0  0  0  0  0  0  0  0
    2.6081   -8.8971    6.9032 H   0  0  0  0  0  0  0  0  0  0  0  0
    4.4141   -6.8358    5.2572 H   0  0  0  0  0  0  0  0  0  0  0  0
    3.9866   -7.4027    3.6830 H   0  0  0  0  0  0  0  0  0  0  0  0
    2.2325   -6.5570    5.9626 H   0  0  0  0  0  0  0  0  0  0  0  0
    2.1510   -6.1469    4.2787 H   0  0  0  0  0  0  0  0  0  0  0  0
    0.9681   -8.4841    5.7736 H   0  0  0  0  0  0  0  0  0  0  0  0
   -1.4925   -9.0439    4.4640 H   0  0  0  0  0  0  0  0  0  0  0  0
   -2.0465   -7.7737    3.3924 H   0  0  0  0  0  0  0  0  0  0  0  0
   -1.1550   -9.8927    2.2305 H   0  0  0  0  0  0  0  0  0  0  0  0
   -0.4285   -8.3869    1.6796 H   0  0  0  0  0  0  0  0  0  0  0  0
    1.1895  -10.3599    2.1633 H   0  0  0  0  0  0  0  0  0  0  0  0
    2.6948  -11.4875    2.9306 H   0  0  0  0  0  0  0  0  0  0  0  0
    4.5358  -12.6566    3.9275 H   0  0  0  0  0  0  0  0  0  0  0  0
    4.8587  -11.8533    1.7682 H   0  0  0  0  0  0  0  0  0  0  0  0
    5.1907  -11.4238    5.7733 H   0  0  0  0  0  0  0  0  0  0  0  0
    6.5601  -11.3574    4.7254 H   0  0  0  0  0  0  0  0  0  0  0  0
    5.7602   -9.0975    3.9031 H   0  0  0  0  0  0  0  0  0  0  0  0
    6.1628   -7.7196    5.8536 H   0  0  0  0  0  0  0  0  0  0  0  0
    8.3958   -8.4775    3.8080 H   0  0  0  0  0  0  0  0  0  0  0  0
    9.5613   -7.7824    4.9255 H   0  0  0  0  0  0  0  0  0  0  0  0
    8.0022   -6.9994    4.6362 H   0  0  0  0  0  0  0  0  0  0  0  0
    8.5357  -10.6378    4.9071 H   0  0  0  0  0  0  0  0  0  0  0  0
    8.1525  -10.8981    6.6124 H   0  0  0  0  0  0  0  0  0  0  0  0
    9.6414  -10.1319    6.1153 H   0  0  0  0  0  0  0  0  0  0  0  0
  1  2  1  0
  1 32  1  0
  1 33  1  0
  1 34  1  0
  2  6  1  0
  2  3  1  0
  2 35  1  1
  3  4  1  0
  3 36  1  0
  3 37  1  0
  5  4  1  1
  5 29  1  0
  5  6  1  0
  5  7  1  0
  6 38  1  0
  6 39  1  0
  7  8  1  0
  8 28  1  0
  8  9  1  0
  8 40  1  6
  9 10  1  0
  9 11  1  0
  9 41  1  1
 10 42  1  0
 12 11  1  1
 11 43  1  0
 11 44  1  0
 12 22  1  0
 12 27  1  0
 12 13  1  0
 13 14  1  0
 13 45  1  0
 13 46  1  0
 14 15  1  0
 14 47  1  0
 14 48  1  0
 15 21  1  0
 15 16  1  0
 15 49  1  1
 16 17  2  0
 16 18  1  0
 18 19  1  0
 18 50  1  0
 18 51  1  0
 19 20  1  0
 19 52  1  0
 19 53  1  0
 20 21  2  0
 20 54  1  0
 21 22  1  0
 22 23  2  0
 23 24  1  0
 23 55  1  0
 24 25  1  0
 24 26  1  0
 24 56  1  1
 25 57  1  0
 26 27  1  0
 26 58  1  0
 26 59  1  0
 27 28  1  0
 27 60  1  6
 28 29  1  0
 28 61  1  1
 29 30  1  0
 29 31  1  0
 30 62  1  0
 30 63  1  0
 30 64  1  0
 31 65  1  0
 31 66  1  0
 31 67  1  0
M  END
>  <i_m_ct_stereo_status>  (108) 
1

>  <s_m_source_file>  (108) 
/var/tmp/pbs.5076255.sched01/tmpbrsd6n1o/39u_ie0p0h.sdf

>  <i_m_source_file_index>  (108) 
3

>  <i_lp_mmshare_version>  (108) 
48012

>  <i_f3d_flags>  (108) 
0

>  <s_epik_input>  (108) 
W0NIM11bQ0BASF0oW0NIMl0xKVtDSDJdT1tDQEBdMTJPW0NAQEhdM1tDQEBIXShDMihbQ0gzXSlbQ0gzXSlbQ0BASF00W0NAXTUoW0NIMl1bQ0BASF0zW09IXSlDKD1bQ0hdW0NAQEhdKFtPSF0pW0NIMl00KUM2W0NAQEhdKFtDSDJdW0NIMl01KUMoPU8pW0NIMl1bQ0gyXVtDSF09Ng==

>  <s_epik_cmdline>  (108) 
J2VwaWtfcHl0aG9uJywgJy1waHQnLCAnMi4wJywgJy1waCcsICc3LjAnLCAnLXRuJywgJzgnLCAnLW1hJywgJzIwMCcsICctaW1hZScsICc8aW5maWxlLm1hZT4nLCAnLW9tYWUnLCAnPG91dGZpbGUubWFlPic=

>  <r_lp_tautomer_probability>  (108) 
1

>  <r_epik_Ionization_Penalty>  (108) 
1.18657e-07

>  <r_epik_Ionization_Penalty_Charging>  (108) 
0

>  <r_epik_Ionization_Penalty_Neutral>  (108) 
1.18657e-07

>  <r_epik_State_Penalty>  (108) 
-0

>  <r_epik_Charging_Adjusted_Penalty>  (108) 
0

>  <i_epik_Tot_Q>  (108) 
0

>  <i_epik_Tot_abs_Q>  (108) 
0

>  <s_lp_Force_Field>  (108) 
OPLS3e

>  <r_lp_Energy>  (108) 
34.8502

>  <b_lp_Chiralities_Consistent>  (108) 
1

>  <s_lp_Variant>  (108) 
33:0-1

>  <s_i_glide_gridfile>  (108) 
pfpi4k_grid

>  <i_i_glide_lignum>  (108) 
3

>  <i_i_glide_rotatable_bonds>  (108) 
2

>  <r_i_docking_score>  (108) 
-2.65534

>  <r_i_glide_ligand_efficiency>  (108) 
-0.0856563

>  <r_i_glide_ligand_efficiency_sa>  (108) 
-0.269079

>  <r_i_glide_ligand_efficiency_ln>  (108) 
-0.598862

>  <r_i_glide_gscore>  (108) 
-2.65534

>  <r_i_glide_lipo>  (108) 
-0.0497138

>  <r_i_glide_hbond>  (108) 
-0.16

>  <r_i_glide_metal>  (108) 
-0

>  <r_i_glide_rewards>  (108) 
-0.487084

>  <r_i_glide_evdw>  (108) 
-19.5458

>  <r_i_glide_ecoul>  (108) 
-6.32015

>  <r_i_glide_erotb>  (108) 
0

>  <r_i_glide_esite>  (108) 
-0.0332335

>  <r_i_glide_emodel>  (108) 
-30.4491

>  <r_i_glide_energy>  (108) 
-25.866

>  <r_i_glide_einternal>  (108) 
0.74648

>  <r_i_glide_intrahb_reward>  (108) 
-0

>  <i_i_glide_confnum>  (108) 
3

>  <i_i_glide_posenum>  (108) 
16

>  <r_i_glide_eff_state_penalty>  (108) 
0

>  <ligand_id>  (108) 
33

>  <original_smiles>  (108) 
CC1COC2(C1)OC1C(O)CC34CCC5C(=O)CCC=C5C3=CC(O)CC4C1C2(C)C

>  <smiles>  (108) 
[H]OC1([H])C([H])=C2C3=C([H])C([H])([H])C([H])([H])C(=O)C3([H])C([H])([H])C([H])([H])C23C([H])([H])C([H])(O[H])C2([H])OC4(OC([H])([H])C([H])(C([H])([H])[H])C4([H])[H])C(C([H])([H])[H])(C([H])([H])[H])C2([H])C3([H])C1([H])[H]

$$$$
33:0:2
     RDKit          3D

 67 72  0  0  1  0  0  0  0  0999 V2000
    3.5219   -6.1624    0.4827 C   0  0  0  0  0  0  0  0  0  0  0  0
    4.0388   -5.3701    1.6864 C   0  0  2  0  0  0  0  0  0  0  0  0
    4.6749   -6.2483    2.7647 C   0  0  0  0  0  0  0  0  0  0  0  0
    4.4278   -5.5954    4.0110 O   0  0  0  0  0  0  0  0  0  0  0  0
    3.5020   -4.5469    3.8623 C   0  0  2  0  0  0  0  0  0  0  0  0
    2.9004   -4.7418    2.4599 C   0  0  0  0  0  0  0  0  0  0  0  0
    4.1437   -3.2950    3.8679 O   0  0  0  0  0  0  0  0  0  0  0  0
    3.4279   -2.3709    4.6855 C   0  0  1  0  0  0  0  0  0  0  0  0
    3.2057   -0.9621    4.0942 C   0  0  1  0  0  0  0  0  0  0  0  0
    2.6609   -1.0538    2.7913 O   0  0  0  0  0  0  0  0  0  0  0  0
    2.2466   -0.1288    4.9962 C   0  0  0  0  0  0  0  0  0  0  0  0
    0.8965   -0.8179    5.4344 C   0  0  2  0  0  0  0  0  0  0  0  0
   -0.1121   -0.9130    4.2475 C   0  0  0  0  0  0  0  0  0  0  0  0
   -0.4867    0.4432    3.6093 C   0  0  0  0  0  0  0  0  0  0  0  0
   -0.4644    1.6508    4.5804 C   0  0  1  0  0  0  0  0  0  0  0  0
   -1.4329    2.7575    4.1379 C   0  0  0  0  0  0  0  0  0  0  0  0
   -1.8285    2.8829    2.9813 O   0  0  0  0  0  0  0  0  0  0  0  0
   -1.8606    3.7375    5.2153 C   0  0  0  0  0  0  0  0  0  0  0  0
   -2.4401    2.9821    6.4174 C   0  0  0  0  0  0  0  0  0  0  0  0
   -1.5905    1.7912    6.8258 C   0  0  0  0  0  0  0  0  0  0  0  0
   -0.6562    1.1932    6.0366 C   0  0  0  0  0  0  0  0  0  0  0  0
    0.1666    0.0561    6.4940 C   0  0  0  0  0  0  0  0  0  0  0  0
    0.2156   -0.2730    7.8114 C   0  0  0  0  0  0  0  0  0  0  0  0
    0.9300   -1.4604    8.4051 C   0  0  1  0  0  0  0  0  0  0  0  0
   -0.0267   -2.3799    8.8838 O   0  0  0  0  0  0  0  0  0  0  0  0
    1.8667   -2.1357    7.4083 C   0  0  0  0  0  0  0  0  0  0  0  0
    1.2354   -2.2590    6.0016 C   0  0  2  0  0  0  0  0  0  0  0  0
    2.1038   -3.0449    4.9739 C   0  0  2  0  0  0  0  0  0  0  0  0
    2.4805   -4.5269    5.0675 C   0  0  0  0  0  0  0  0  0  0  0  0
    1.2647   -5.4510    4.8336 C   0  0  0  0  0  0  0  0  0  0  0  0
    3.1979   -4.9759    6.3658 C   0  0  0  0  0  0  0  0  0  0  0  0
    2.7829   -6.9074    0.7760 H   0  0  0  0  0  0  0  0  0  0  0  0
    4.3206   -6.6911   -0.0392 H   0  0  0  0  0  0  0  0  0  0  0  0
    3.0342   -5.5053   -0.2419 H   0  0  0  0  0  0  0  0  0  0  0  0
    4.7527   -4.6015    1.3753 H   0  0  0  0  0  0  0  0  0  0  0  0
    4.2002   -7.2272    2.8128 H   0  0  0  0  0  0  0  0  0  0  0  0
    5.7402   -6.4056    2.5904 H   0  0  0  0  0  0  0  0  0  0  0  0
    2.5582   -3.7951    2.0420 H   0  0  0  0  0  0  0  0  0  0  0  0
    2.0805   -5.4610    2.4771 H   0  0  0  0  0  0  0  0  0  0  0  0
    4.0035   -2.2666    5.6043 H   0  0  0  0  0  0  0  0  0  0  0  0
    4.1657   -0.4469    4.0153 H   0  0  0  0  0  0  0  0  0  0  0  0
    2.6010   -0.1799    2.4220 H   0  0  0  0  0  0  0  0  0  0  0  0
    2.7970    0.1382    5.8939 H   0  0  0  0  0  0  0  0  0  0  0  0
    2.0803    0.8223    4.4989 H   0  0  0  0  0  0  0  0  0  0  0  0
    0.2213   -1.5612    3.4427 H   0  0  0  0  0  0  0  0  0  0  0  0
   -1.0254   -1.3801    4.6180 H   0  0  0  0  0  0  0  0  0  0  0  0
    0.1922    0.6564    2.7811 H   0  0  0  0  0  0  0  0  0  0  0  0
   -1.4695    0.3357    3.1492 H   0  0  0  0  0  0  0  0  0  0  0  0
    0.5154    2.1213    4.5378 H   0  0  0  0  0  0  0  0  0  0  0  0
   -0.9816    4.3097    5.5181 H   0  0  0  0  0  0  0  0  0  0  0  0
   -2.5849    4.4375    4.8067 H   0  0  0  0  0  0  0  0  0  0  0  0
   -2.5145    3.6671    7.2642 H   0  0  0  0  0  0  0  0  0  0  0  0
   -3.4527    2.6436    6.1959 H   0  0  0  0  0  0  0  0  0  0  0  0
   -1.8036    1.4519    7.8287 H   0  0  0  0  0  0  0  0  0  0  0  0
   -0.2863    0.3190    8.5601 H   0  0  0  0  0  0  0  0  0  0  0  0
    1.5138   -1.1062    9.2556 H   0  0  0  0  0  0  0  0  0  0  0  0
    0.4372   -3.0269    9.4052 H   0  0  0  0  0  0  0  0  0  0  0  0
    2.7799   -1.5446    7.3632 H   0  0  0  0  0  0  0  0  0  0  0  0
    2.1684   -3.0916    7.8233 H   0  0  0  0  0  0  0  0  0  0  0  0
    0.3041   -2.8100    6.1197 H   0  0  0  0  0  0  0  0  0  0  0  0
    1.5406   -3.0066    4.0468 H   0  0  0  0  0  0  0  0  0  0  0  0
    0.6053   -5.4601    5.7033 H   0  0  0  0  0  0  0  0  0  0  0  0
    1.5906   -6.4771    4.6646 H   0  0  0  0  0  0  0  0  0  0  0  0
    0.6681   -5.1446    3.9770 H   0  0  0  0  0  0  0  0  0  0  0  0
    2.5007   -5.0704    7.1919 H   0  0  0  0  0  0  0  0  0  0  0  0
    4.0103   -4.3171    6.6628 H   0  0  0  0  0  0  0  0  0  0  0  0
    3.6211   -5.9720    6.2583 H   0  0  0  0  0  0  0  0  0  0  0  0
  1  2  1  0
  1 32  1  0
  1 33  1  0
  1 34  1  0
  2  6  1  0
  2  3  1  0
  2 35  1  6
  3  4  1  0
  3 36  1  0
  3 37  1  0
  5  4  1  1
  5 29  1  0
  5  6  1  0
  5  7  1  0
  6 38  1  0
  6 39  1  0
  7  8  1  0
  8 28  1  0
  8  9  1  0
  8 40  1  1
  9 10  1  0
  9 11  1  0
  9 41  1  6
 10 42  1  0
 12 11  1  6
 11 43  1  0
 11 44  1  0
 12 22  1  0
 12 27  1  0
 12 13  1  0
 13 14  1  0
 13 45  1  0
 13 46  1  0
 14 15  1  0
 14 47  1  0
 14 48  1  0
 15 21  1  0
 15 16  1  0
 15 49  1  1
 16 17  2  0
 16 18  1  0
 18 19  1  0
 18 50  1  0
 18 51  1  0
 19 20  1  0
 19 52  1  0
 19 53  1  0
 20 21  2  0
 20 54  1  0
 21 22  1  0
 22 23  2  0
 23 24  1  0
 23 55  1  0
 24 25  1  0
 24 26  1  0
 24 56  1  1
 25 57  1  0
 26 27  1  0
 26 58  1  0
 26 59  1  0
 27 28  1  0
 27 60  1  1
 28 29  1  0
 28 61  1  6
 29 30  1  0
 29 31  1  0
 30 62  1  0
 30 63  1  0
 30 64  1  0
 31 65  1  0
 31 66  1  0
 31 67  1  0
M  END
>  <i_m_ct_stereo_status>  (109) 
1

>  <s_m_source_file>  (109) 
/var/tmp/pbs.5076255.sched01/tmpbrsd6n1o/39u_ie0p0h.sdf

>  <i_m_source_file_index>  (109) 
3

>  <i_lp_mmshare_version>  (109) 
48012

>  <i_f3d_flags>  (109) 
0

>  <s_epik_input>  (109) 
W0NIM11bQ0BASF0oW0NIMl0xKVtDSDJdT1tDQEBdMTJPW0NAQEhdM1tDQEBIXShDMihbQ0gzXSlbQ0gzXSlbQ0BASF00W0NAXTUoW0NIMl1bQ0BASF0zW09IXSlDKD1bQ0hdW0NAQEhdKFtPSF0pW0NIMl00KUM2W0NAQEhdKFtDSDJdW0NIMl01KUMoPU8pW0NIMl1bQ0gyXVtDSF09Ng==

>  <s_epik_cmdline>  (109) 
J2VwaWtfcHl0aG9uJywgJy1waHQnLCAnMi4wJywgJy1waCcsICc3LjAnLCAnLXRuJywgJzgnLCAnLW1hJywgJzIwMCcsICctaW1hZScsICc8aW5maWxlLm1hZT4nLCAnLW9tYWUnLCAnPG91dGZpbGUubWFlPic=

>  <r_lp_tautomer_probability>  (109) 
1

>  <r_epik_Ionization_Penalty>  (109) 
1.18657e-07

>  <r_epik_Ionization_Penalty_Charging>  (109) 
0

>  <r_epik_Ionization_Penalty_Neutral>  (109) 
1.18657e-07

>  <r_epik_State_Penalty>  (109) 
-0

>  <r_epik_Charging_Adjusted_Penalty>  (109) 
0

>  <i_epik_Tot_Q>  (109) 
0

>  <i_epik_Tot_abs_Q>  (109) 
0

>  <s_lp_Force_Field>  (109) 
OPLS3e

>  <r_lp_Energy>  (109) 
34.8502

>  <b_lp_Chiralities_Consistent>  (109) 
1

>  <s_lp_Variant>  (109) 
33:0-1

>  <s_i_glide_gridfile>  (109) 
pfpi4k_grid

>  <i_i_glide_lignum>  (109) 
3

>  <i_i_glide_rotatable_bonds>  (109) 
2

>  <r_i_docking_score>  (109) 
-2.26671

>  <r_i_glide_ligand_efficiency>  (109) 
-0.0731195

>  <r_i_glide_ligand_efficiency_sa>  (109) 
-0.229696

>  <r_i_glide_ligand_efficiency_ln>  (109) 
-0.511212

>  <r_i_glide_gscore>  (109) 
-2.26671

>  <r_i_glide_lipo>  (109) 
-0.165815

>  <r_i_glide_hbond>  (109) 
-0.16

>  <r_i_glide_metal>  (109) 
-0

>  <r_i_glide_rewards>  (109) 
-0.487084

>  <r_i_glide_evdw>  (109) 
-22.5134

>  <r_i_glide_ecoul>  (109) 
-1.98173

>  <r_i_glide_erotb>  (109) 
0

>  <r_i_glide_esite>  (109) 
-0.0308787

>  <r_i_glide_emodel>  (109) 
-28.3311

>  <r_i_glide_energy>  (109) 
-24.4951

>  <r_i_glide_einternal>  (109) 
0.792112

>  <r_i_glide_intrahb_reward>  (109) 
-0

>  <i_i_glide_confnum>  (109) 
3

>  <i_i_glide_posenum>  (109) 
21

>  <r_i_glide_eff_state_penalty>  (109) 
0

>  <ligand_id>  (109) 
33

>  <original_smiles>  (109) 
CC1COC2(C1)OC1C(O)CC34CCC5C(=O)CCC=C5C3=CC(O)CC4C1C2(C)C

>  <smiles>  (109) 
[H]OC1([H])C([H])=C2C3=C([H])C([H])([H])C([H])([H])C(=O)C3([H])C([H])([H])C([H])([H])C23C([H])([H])C([H])(O[H])C2([H])OC4(OC([H])([H])C([H])(C([H])([H])[H])C4([H])[H])C(C([H])([H])[H])(C([H])([H])[H])C2([H])C3([H])C1([H])[H]

$$$$
35:0:0
     RDKit          3D

 54 57  0  0  1  0  0  0  0  0999 V2000
    3.2675   -3.1861   -3.7819 C   0  0  0  0  0  0  0  0  0  0  0  0
    3.6909   -2.8001   -2.4458 N   0  0  0  0  0  0  0  0  0  0  0  0
    2.6195   -3.1283   -1.5189 C   0  0  0  0  0  0  0  0  0  0  0  0
    3.0569   -2.7558   -0.0890 C   0  0  0  0  0  0  0  0  0  0  0  0
    3.4230   -1.3146    0.0015 N   0  0  0  0  0  0  0  0  0  0  0  0
    3.8147   -0.8317    1.3822 C   0  0  2  0  0  0  0  0  0  0  0  0
    4.7684   -1.8254    2.0802 C   0  0  0  0  0  0  0  0  0  0  0  0
    5.7350   -1.1378    2.8670 O   0  0  0  0  0  0  0  0  0  0  0  0
    5.3140   -0.8269    4.1679 C   0  0  0  0  0  0  0  0  0  0  0  0
    4.2271    0.2417    4.1501 C   0  0  0  0  0  0  0  0  0  0  0  0
    2.8276   -0.2469    3.7330 C   0  0  1  0  0  0  0  0  0  0  0  0
    1.9611    0.7024    4.3295 O   0  0  0  0  0  0  0  0  0  0  0  0
    0.5599    0.4842    4.2316 C   0  0  1  0  0  0  0  0  0  0  0  0
   -0.1374    0.8037    5.5463 C   0  0  0  0  0  0  0  0  0  0  0  0
   -1.5379    0.6774    5.6947 C   0  0  0  0  0  0  0  0  0  0  0  0
   -2.1652    0.9709    6.8646 N   0  0  0  0  0  0  0  0  0  0  0  0
   -1.3727    1.3835    7.8846 C   0  0  0  0  0  0  0  0  0  0  0  0
    0.0221    1.4987    7.7417 C   0  0  0  0  0  0  0  0  0  0  0  0
    0.6484    1.2150    6.5730 N   0  0  0  0  0  0  0  0  0  0  0  0
    0.1047    1.4032    3.1001 C   0  0  0  0  0  0  0  0  0  0  0  0
    0.4899    0.8559    1.8494 O   0  0  0  0  0  0  0  0  0  0  0  0
    1.8730    0.8247    1.5667 C   0  0  0  0  0  0  0  0  0  0  0  0
    2.5601   -0.4079    2.1978 C   0  0  1  0  0  0  0  0  0  0  0  0
    4.4320   -0.9506   -1.0219 C   0  0  0  0  0  0  0  0  0  0  0  0
    3.9571   -1.3687   -2.4313 C   0  0  0  0  0  0  0  0  0  0  0  0
    2.9861   -4.2462   -3.8069 H   0  0  0  0  0  0  0  0  0  0  0  0
    4.0796   -3.0417   -4.4864 H   0  0  0  0  0  0  0  0  0  0  0  0
    2.3981   -2.6015   -4.1035 H   0  0  0  0  0  0  0  0  0  0  0  0
    1.6868   -2.6594   -1.8194 H   0  0  0  0  0  0  0  0  0  0  0  0
    2.4604   -4.2062   -1.5355 H   0  0  0  0  0  0  0  0  0  0  0  0
    2.2525   -2.9766    0.6187 H   0  0  0  0  0  0  0  0  0  0  0  0
    3.8835   -3.4430    0.1379 H   0  0  0  0  0  0  0  0  0  0  0  0
    4.4018    0.1007    1.2735 H   0  0  0  0  0  0  0  0  0  0  0  0
    4.2354   -2.6073    2.6280 H   0  0  0  0  0  0  0  0  0  0  0  0
    5.4171   -2.3170    1.3684 H   0  0  0  0  0  0  0  0  0  0  0  0
    5.0068   -1.7292    4.7087 H   0  0  0  0  0  0  0  0  0  0  0  0
    6.2013   -0.4380    4.6692 H   0  0  0  0  0  0  0  0  0  0  0  0
    4.1627    0.6005    5.1661 H   0  0  0  0  0  0  0  0  0  0  0  0
    4.5371    1.0994    3.5460 H   0  0  0  0  0  0  0  0  0  0  0  0
    2.6525   -1.2052    4.2147 H   0  0  0  0  0  0  0  0  0  0  0  0
    0.3310   -0.5557    4.0021 H   0  0  0  0  0  0  0  0  0  0  0  0
   -2.1723    0.3423    4.8873 H   0  0  0  0  0  0  0  0  0  0  0  0
   -1.8518    1.5882    8.8276 H   0  0  0  0  0  0  0  0  0  0  0  0
    0.6515    1.8032    8.5635 H   0  0  0  0  0  0  0  0  0  0  0  0
   -0.9838    1.4501    3.0635 H   0  0  0  0  0  0  0  0  0  0  0  0
    0.4506    2.4408    3.2359 H   0  0  0  0  0  0  0  0  0  0  0  0
    1.8972    0.6967    0.4762 H   0  0  0  0  0  0  0  0  0  0  0  0
    2.3657    1.7653    1.8039 H   0  0  0  0  0  0  0  0  0  0  0  0
    1.8463   -1.2199    2.0970 H   0  0  0  0  0  0  0  0  0  0  0  0
    4.6147    0.1291   -1.0158 H   0  0  0  0  0  0  0  0  0  0  0  0
    5.3963   -1.4316   -0.8059 H   0  0  0  0  0  0  0  0  0  0  0  0
    4.7339   -1.1353   -3.1528 H   0  0  0  0  0  0  0  0  0  0  0  0
    3.0699   -0.8112   -2.7154 H   0  0  0  0  0  0  0  0  0  0  0  0
    2.5763   -0.8516   -0.2732 H   0  0  0  0  0  0  0  0  0  0  0  0
  1  2  1  0
  1 26  1  0
  1 27  1  0
  1 28  1  0
  2 25  1  0
  2  3  1  0
  3  4  1  0
  3 29  1  0
  3 30  1  0
  4  5  1  0
  4 31  1  0
  4 32  1  0
  5  6  1  0
  5 24  1  0
  5 54  1  0
  6 23  1  0
  6  7  1  0
  6 33  1  6
  7  8  1  0
  7 34  1  0
  7 35  1  0
  8  9  1  0
  9 10  1  0
  9 36  1  0
  9 37  1  0
 10 11  1  0
 10 38  1  0
 10 39  1  0
 11 23  1  0
 11 12  1  0
 11 40  1  1
 12 13  1  0
 13 14  1  0
 13 20  1  0
 13 41  1  6
 14 19  1  0
 14 15  2  0
 15 16  1  0
 15 42  1  0
 16 17  2  0
 17 18  1  0
 17 43  1  0
 18 19  2  0
 18 44  1  0
 20 21  1  0
 20 45  1  0
 20 46  1  0
 21 22  1  0
 22 23  1  0
 22 47  1  0
 22 48  1  0
 23 49  1  1
 24 25  1  0
 24 50  1  0
 24 51  1  0
 25 52  1  0
 25 53  1  0
M  CHG  1   5   1
M  END
>  <i_m_ct_stereo_status>  (110) 
1

>  <s_m_source_file>  (110) 
/var/tmp/pbs.5076255.sched01/tmpbrsd6n1o/39u_ie0p0h.sdf

>  <i_m_source_file_index>  (110) 
5

>  <i_lp_mmshare_version>  (110) 
48012

>  <i_f3d_flags>  (110) 
0

>  <s_epik_input>  (110) 
W0NIM11OMVtDSDJdW0NIMl1OKFtDSDJdW0NIMl0xKVtDQEhdKFtDSDJdT1tDSDJdW0NIMl0yKVtDQEBIXShbQ0BASF0yMylbQ0gyXU9bQ0gyXVtDQEBIXShPMyljNFtjSF1uW2NIXVtjSF1uNA==

>  <s_epik_cmdline>  (110) 
J2VwaWtfcHl0aG9uJywgJy1waHQnLCAnMi4wJywgJy1waCcsICc3LjAnLCAnLXRuJywgJzgnLCAnLW1hJywgJzIwMCcsICctaW1hZScsICc8aW5maWxlLm1hZT4nLCAnLW9tYWUnLCAnPG91dGZpbGUubWFlPic=

>  <r_lp_tautomer_probability>  (110) 
1

>  <r_epik_Ionization_Penalty>  (110) 
0.0264123

>  <r_epik_Ionization_Penalty_Charging>  (110) 
0.025208

>  <r_epik_Ionization_Penalty_Neutral>  (110) 
0.00120439

>  <r_epik_State_Penalty>  (110) 
0.299211

>  <r_epik_Charging_Adjusted_Penalty>  (110) 
0.324419

>  <i_epik_Tot_Q>  (110) 
1

>  <i_epik_Tot_abs_Q>  (110) 
1

>  <s_lp_Force_Field>  (110) 
OPLS3e

>  <r_lp_Energy>  (110) 
55.3764

>  <b_lp_Chiralities_Consistent>  (110) 
1

>  <s_lp_Variant>  (110) 
35:0-1

>  <s_i_glide_gridfile>  (110) 
pfpi4k_grid

>  <i_i_glide_lignum>  (110) 
5

>  <i_i_glide_rotatable_bonds>  (110) 
2

>  <r_i_docking_score>  (110) 
-3.5316

>  <r_i_glide_ligand_efficiency>  (110) 
-0.141264

>  <r_i_glide_ligand_efficiency_sa>  (110) 
-0.413058

>  <r_i_glide_ligand_efficiency_ln>  (110) 
-0.837094

>  <r_i_glide_gscore>  (110) 
-3.5316

>  <r_i_glide_lipo>  (110) 
-0.323685

>  <r_i_glide_hbond>  (110) 
-0.355301

>  <r_i_glide_metal>  (110) 
-0

>  <r_i_glide_rewards>  (110) 
-1.02649

>  <r_i_glide_evdw>  (110) 
-21.5636

>  <r_i_glide_ecoul>  (110) 
-6.45379

>  <r_i_glide_erotb>  (110) 
0.311985

>  <r_i_glide_esite>  (110) 
-0.0918566

>  <r_i_glide_emodel>  (110) 
-33.3624

>  <r_i_glide_energy>  (110) 
-28.0174

>  <r_i_glide_einternal>  (110) 
3.21899

>  <r_i_glide_intrahb_reward>  (110) 
-0

>  <i_i_glide_confnum>  (110) 
1

>  <i_i_glide_posenum>  (110) 
18

>  <r_i_glide_eff_state_penalty>  (110) 
0

>  <ligand_id>  (110) 
35

>  <original_smiles>  (110) 
CN1CCN(C2COCCC3OC(c4cnccn4)COCC32)CC1

>  <smiles>  (110) 
[H]c1nc([H])c(C2([H])OC3([H])C([H])([H])C([H])([H])OC([H])([H])C([H])([N+]4([H])C([H])([H])C([H])([H])N(C([H])([H])[H])C([H])([H])C4([H])[H])C3([H])C([H])([H])OC2([H])[H])nc1[H]

$$$$
35:0:1
     RDKit          3D

 54 57  0  0  1  0  0  0  0  0999 V2000
    3.4878   -3.2104   -3.5510 C   0  0  0  0  0  0  0  0  0  0  0  0
    3.8359   -2.8263   -2.1988 N   0  0  0  0  0  0  0  0  0  0  0  0
    2.6671   -3.0649   -1.3626 C   0  0  0  0  0  0  0  0  0  0  0  0
    2.9887   -2.6920    0.0957 C   0  0  0  0  0  0  0  0  0  0  0  0
    3.4429   -1.2726    0.2092 N   0  0  0  0  0  0  0  0  0  0  0  0
    3.7388   -0.7929    1.6126 C   0  0  2  0  0  0  0  0  0  0  0  0
    4.5326   -1.8526    2.4075 C   0  0  0  0  0  0  0  0  0  0  0  0
    5.4746   -1.2379    3.2682 O   0  0  0  0  0  0  0  0  0  0  0  0
    4.9712   -0.8605    4.5211 C   0  0  0  0  0  0  0  0  0  0  0  0
    3.9957    0.3061    4.3873 C   0  0  0  0  0  0  0  0  0  0  0  0
    2.5993   -0.0727    3.8574 C   0  0  1  0  0  0  0  0  0  0  0  0
    1.7617    0.9454    4.3755 O   0  0  0  0  0  0  0  0  0  0  0  0
    0.3704    0.8478    4.1302 C   0  0  1  0  0  0  0  0  0  0  0  0
   -0.4224    1.2628    5.3700 C   0  0  0  0  0  0  0  0  0  0  0  0
   -1.6172    0.6162    5.7297 C   0  0  0  0  0  0  0  0  0  0  0  0
   -2.2993    0.9437    6.8605 N   0  0  0  0  0  0  0  0  0  0  0  0
   -1.7869    1.9541    7.5942 C   0  0  0  0  0  0  0  0  0  0  0  0
   -0.5973    2.6131    7.2273 C   0  0  0  0  0  0  0  0  0  0  0  0
    0.0935    2.2780    6.1102 N   0  0  0  0  0  0  0  0  0  0  0  0
    0.0880    1.7746    2.9440 C   0  0  0  0  0  0  0  0  0  0  0  0
    0.5390    1.1699    1.7429 O   0  0  0  0  0  0  0  0  0  0  0  0
    1.9345    1.0172    1.6083 C   0  0  0  0  0  0  0  0  0  0  0  0
    2.4578   -0.2504    2.3141 C   0  0  1  0  0  0  0  0  0  0  0  0
    4.5499   -0.9994   -0.7291 C   0  0  0  0  0  0  0  0  0  0  0  0
    4.1751   -1.4049   -2.1672 C   0  0  0  0  0  0  0  0  0  0  0  0
    3.1503   -4.2566   -3.5884 H   0  0  0  0  0  0  0  0  0  0  0  0
    4.3593   -3.1213   -4.1999 H   0  0  0  0  0  0  0  0  0  0  0  0
    2.6932   -2.5716   -3.9516 H   0  0  0  0  0  0  0  0  0  0  0  0
    1.8214   -2.5423   -1.7858 H   0  0  0  0  0  0  0  0  0  0  0  0
    2.4248   -4.1255   -1.3817 H   0  0  0  0  0  0  0  0  0  0  0  0
    2.1126   -2.8382    0.7317 H   0  0  0  0  0  0  0  0  0  0  0  0
    3.7466   -3.4084    0.4200 H   0  0  0  0  0  0  0  0  0  0  0  0
    4.4090    0.0799    1.5444 H   0  0  0  0  0  0  0  0  0  0  0  0
    3.8874   -2.5823    2.9082 H   0  0  0  0  0  0  0  0  0  0  0  0
    5.1975   -2.4119    1.7559 H   0  0  0  0  0  0  0  0  0  0  0  0
    4.5406   -1.7187    5.0502 H   0  0  0  0  0  0  0  0  0  0  0  0
    5.8400   -0.5460    5.0954 H   0  0  0  0  0  0  0  0  0  0  0  0
    3.8744    0.6932    5.3934 H   0  0  0  0  0  0  0  0  0  0  0  0
    4.4313    1.1162    3.7993 H   0  0  0  0  0  0  0  0  0  0  0  0
    2.3057   -1.0079    4.3268 H   0  0  0  0  0  0  0  0  0  0  0  0
    0.0781   -0.1739    3.8899 H   0  0  0  0  0  0  0  0  0  0  0  0
   -2.0398   -0.1891    5.1356 H   0  0  0  0  0  0  0  0  0  0  0  0
   -2.3278    2.2290    8.4917 H   0  0  0  0  0  0  0  0  0  0  0  0
   -0.1842    3.4072    7.8344 H   0  0  0  0  0  0  0  0  0  0  0  0
   -0.9858    1.9033    2.8251 H   0  0  0  0  0  0  0  0  0  0  0  0
    0.5045    2.7753    3.0950 H   0  0  0  0  0  0  0  0  0  0  0  0
    2.0548    0.8655    0.5350 H   0  0  0  0  0  0  0  0  0  0  0  0
    2.4886    1.9231    1.8665 H   0  0  0  0  0  0  0  0  0  0  0  0
    1.6879   -1.0031    2.1516 H   0  0  0  0  0  0  0  0  0  0  0  0
    4.7666    0.0707   -0.7037 H   0  0  0  0  0  0  0  0  0  0  0  0
    5.4590   -1.5178   -0.4162 H   0  0  0  0  0  0  0  0  0  0  0  0
    5.0279   -1.2245   -2.8174 H   0  0  0  0  0  0  0  0  0  0  0  0
    3.3531   -0.7906   -2.5399 H   0  0  0  0  0  0  0  0  0  0  0  0
    2.6654   -0.7379   -0.1361 H   0  0  0  0  0  0  0  0  0  0  0  0
  1  2  1  0
  1 26  1  0
  1 27  1  0
  1 28  1  0
  2 25  1  0
  2  3  1  0
  3  4  1  0
  3 29  1  0
  3 30  1  0
  4  5  1  0
  4 31  1  0
  4 32  1  0
  5  6  1  0
  5 24  1  0
  5 54  1  0
  6 23  1  0
  6  7  1  0
  6 33  1  6
  7  8  1  0
  7 34  1  0
  7 35  1  0
  8  9  1  0
  9 10  1  0
  9 36  1  0
  9 37  1  0
 10 11  1  0
 10 38  1  0
 10 39  1  0
 11 23  1  0
 11 12  1  0
 11 40  1  1
 12 13  1  0
 13 14  1  0
 13 20  1  0
 13 41  1  6
 14 19  1  0
 14 15  2  0
 15 16  1  0
 15 42  1  0
 16 17  2  0
 17 18  1  0
 17 43  1  0
 18 19  2  0
 18 44  1  0
 20 21  1  0
 20 45  1  0
 20 46  1  0
 21 22  1  0
 22 23  1  0
 22 47  1  0
 22 48  1  0
 23 49  1  1
 24 25  1  0
 24 50  1  0
 24 51  1  0
 25 52  1  0
 25 53  1  0
M  CHG  1   5   1
M  END
>  <i_m_ct_stereo_status>  (111) 
1

>  <s_m_source_file>  (111) 
/var/tmp/pbs.5076255.sched01/tmpbrsd6n1o/39u_ie0p0h.sdf

>  <i_m_source_file_index>  (111) 
5

>  <i_lp_mmshare_version>  (111) 
48012

>  <i_f3d_flags>  (111) 
0

>  <s_epik_input>  (111) 
W0NIM11OMVtDSDJdW0NIMl1OKFtDSDJdW0NIMl0xKVtDQEhdKFtDSDJdT1tDSDJdW0NIMl0yKVtDQEBIXShbQ0BASF0yMylbQ0gyXU9bQ0gyXVtDQEBIXShPMyljNFtjSF1uW2NIXVtjSF1uNA==

>  <s_epik_cmdline>  (111) 
J2VwaWtfcHl0aG9uJywgJy1waHQnLCAnMi4wJywgJy1waCcsICc3LjAnLCAnLXRuJywgJzgnLCAnLW1hJywgJzIwMCcsICctaW1hZScsICc8aW5maWxlLm1hZT4nLCAnLW9tYWUnLCAnPG91dGZpbGUubWFlPic=

>  <r_lp_tautomer_probability>  (111) 
1

>  <r_epik_Ionization_Penalty>  (111) 
0.0264123

>  <r_epik_Ionization_Penalty_Charging>  (111) 
0.025208

>  <r_epik_Ionization_Penalty_Neutral>  (111) 
0.00120439

>  <r_epik_State_Penalty>  (111) 
0.299211

>  <r_epik_Charging_Adjusted_Penalty>  (111) 
0.324419

>  <i_epik_Tot_Q>  (111) 
1

>  <i_epik_Tot_abs_Q>  (111) 
1

>  <s_lp_Force_Field>  (111) 
OPLS3e

>  <r_lp_Energy>  (111) 
55.3764

>  <b_lp_Chiralities_Consistent>  (111) 
1

>  <s_lp_Variant>  (111) 
35:0-1

>  <s_i_glide_gridfile>  (111) 
pfpi4k_grid

>  <i_i_glide_lignum>  (111) 
5

>  <i_i_glide_rotatable_bonds>  (111) 
2

>  <r_i_docking_score>  (111) 
-3.41507

>  <r_i_glide_ligand_efficiency>  (111) 
-0.136603

>  <r_i_glide_ligand_efficiency_sa>  (111) 
-0.39943

>  <r_i_glide_ligand_efficiency_ln>  (111) 
-0.809475

>  <r_i_glide_gscore>  (111) 
-3.41507

>  <r_i_glide_lipo>  (111) 
-0.301176

>  <r_i_glide_hbond>  (111) 
-0.311209

>  <r_i_glide_metal>  (111) 
-0

>  <r_i_glide_rewards>  (111) 
-1.02649

>  <r_i_glide_evdw>  (111) 
-20.2608

>  <r_i_glide_ecoul>  (111) 
-6.64196

>  <r_i_glide_erotb>  (111) 
0.311985

>  <r_i_glide_esite>  (111) 
-0.0788514

>  <r_i_glide_emodel>  (111) 
-32.512

>  <r_i_glide_energy>  (111) 
-26.9027

>  <r_i_glide_einternal>  (111) 
2.19962

>  <r_i_glide_intrahb_reward>  (111) 
-0

>  <i_i_glide_confnum>  (111) 
3

>  <i_i_glide_posenum>  (111) 
24

>  <r_i_glide_eff_state_penalty>  (111) 
0

>  <ligand_id>  (111) 
35

>  <original_smiles>  (111) 
CN1CCN(C2COCCC3OC(c4cnccn4)COCC32)CC1

>  <smiles>  (111) 
[H]c1nc([H])c(C2([H])OC3([H])C([H])([H])C([H])([H])OC([H])([H])C([H])([N+]4([H])C([H])([H])C([H])([H])N(C([H])([H])[H])C([H])([H])C4([H])[H])C3([H])C([H])([H])OC2([H])[H])nc1[H]

$$$$
35:0:2
     RDKit          3D

 54 57  0  0  1  0  0  0  0  0999 V2000
    5.5962   -3.2941   -2.9459 C   0  0  0  0  0  0  0  0  0  0  0  0
    5.0647   -3.3329   -1.6001 N   0  0  0  0  0  0  0  0  0  0  0  0
    3.7717   -2.6591   -1.5769 C   0  0  0  0  0  0  0  0  0  0  0  0
    3.1861   -2.7810   -0.1683 C   0  0  0  0  0  0  0  0  0  0  0  0
    4.0881   -2.1816    0.8550 N   0  0  0  0  0  0  0  0  0  0  0  0
    3.5432   -2.1607    2.2370 C   0  0  2  0  0  0  0  0  0  0  0  0
    2.9904   -3.5489    2.6464 C   0  0  0  0  0  0  0  0  0  0  0  0
    3.2605   -3.8223    4.0099 O   0  0  0  0  0  0  0  0  0  0  0  0
    2.3019   -3.3132    4.9059 C   0  0  0  0  0  0  0  0  0  0  0  0
    2.3168   -1.7837    4.9464 C   0  0  0  0  0  0  0  0  0  0  0  0
    1.6757   -1.0879    3.7293 C   0  0  1  0  0  0  0  0  0  0  0  0
    1.2714    0.1714    4.2452 O   0  0  0  0  0  0  0  0  0  0  0  0
    0.5445    1.0357    3.3831 C   0  0  1  0  0  0  0  0  0  0  0  0
   -0.5727    1.7319    4.1455 C   0  0  0  0  0  0  0  0  0  0  0  0
   -1.5785    2.4742    3.4759 C   0  0  0  0  0  0  0  0  0  0  0  0
   -2.5781    3.0911    4.1503 N   0  0  0  0  0  0  0  0  0  0  0  0
   -2.5764    2.9598    5.4976 C   0  0  0  0  0  0  0  0  0  0  0  0
   -1.5685    2.2301    6.1666 C   0  0  0  0  0  0  0  0  0  0  0  0
   -0.5670    1.6198    5.4979 N   0  0  0  0  0  0  0  0  0  0  0  0
    1.5876    2.0212    2.8489 C   0  0  0  0  0  0  0  0  0  0  0  0
    2.4050    1.4076    1.8639 O   0  0  0  0  0  0  0  0  0  0  0  0
    3.2767    0.3900    2.3255 C   0  0  0  0  0  0  0  0  0  0  0  0
    2.5517   -0.9753    2.4406 C   0  0  1  0  0  0  0  0  0  0  0  0
    5.4476   -2.7654    0.7590 C   0  0  0  0  0  0  0  0  0  0  0  0
    5.9878   -2.6726   -0.6790 C   0  0  0  0  0  0  0  0  0  0  0  0
    4.8907   -3.7296   -3.6512 H   0  0  0  0  0  0  0  0  0  0  0  0
    6.5345   -3.8386   -3.0019 H   0  0  0  0  0  0  0  0  0  0  0  0
    5.7772   -2.2572   -3.2369 H   0  0  0  0  0  0  0  0  0  0  0  0
    3.8505   -1.6212   -1.9087 H   0  0  0  0  0  0  0  0  0  0  0  0
    3.1041   -3.1706   -2.2719 H   0  0  0  0  0  0  0  0  0  0  0  0
    2.2242   -2.2643   -0.1452 H   0  0  0  0  0  0  0  0  0  0  0  0
    2.9809   -3.8411    0.0023 H   0  0  0  0  0  0  0  0  0  0  0  0
    4.3687   -1.9506    2.9304 H   0  0  0  0  0  0  0  0  0  0  0  0
    1.9362   -3.6830    2.3818 H   0  0  0  0  0  0  0  0  0  0  0  0
    3.5432   -4.3390    2.1471 H   0  0  0  0  0  0  0  0  0  0  0  0
    1.3115   -3.7125    4.6730 H   0  0  0  0  0  0  0  0  0  0  0  0
    2.5725   -3.7109    5.8823 H   0  0  0  0  0  0  0  0  0  0  0  0
    1.7402   -1.5147    5.8255 H   0  0  0  0  0  0  0  0  0  0  0  0
    3.3269   -1.4106    5.1204 H   0  0  0  0  0  0  0  0  0  0  0  0
    0.7650   -1.6340    3.4819 H   0  0  0  0  0  0  0  0  0  0  0  0
    0.0743    0.4920    2.5636 H   0  0  0  0  0  0  0  0  0  0  0  0
   -1.5906    2.5712    2.4002 H   0  0  0  0  0  0  0  0  0  0  0  0
   -3.3787    3.4243    6.0432 H   0  0  0  0  0  0  0  0  0  0  0  0
   -1.5705    2.1278    7.2402 H   0  0  0  0  0  0  0  0  0  0  0  0
    1.0823    2.8444    2.3489 H   0  0  0  0  0  0  0  0  0  0  0  0
    2.1660    2.4768    3.6606 H   0  0  0  0  0  0  0  0  0  0  0  0
    4.0389    0.3279    1.5437 H   0  0  0  0  0  0  0  0  0  0  0  0
    3.8065    0.6795    3.2337 H   0  0  0  0  0  0  0  0  0  0  0  0
    1.8455   -0.9919    1.6139 H   0  0  0  0  0  0  0  0  0  0  0  0
    6.1299   -2.2333    1.4296 H   0  0  0  0  0  0  0  0  0  0  0  0
    5.4505   -3.8133    1.0713 H   0  0  0  0  0  0  0  0  0  0  0  0
    6.9575   -3.1718   -0.7265 H   0  0  0  0  0  0  0  0  0  0  0  0
    6.1467   -1.6340   -0.9753 H   0  0  0  0  0  0  0  0  0  0  0  0
    4.1966   -1.2228    0.5696 H   0  0  0  0  0  0  0  0  0  0  0  0
  1  2  1  0
  1 26  1  0
  1 27  1  0
  1 28  1  0
  2 25  1  0
  2  3  1  0
  3  4  1  0
  3 29  1  0
  3 30  1  0
  4  5  1  0
  4 31  1  0
  4 32  1  0
  5  6  1  0
  5 24  1  0
  5 54  1  0
  6 23  1  0
  6  7  1  0
  6 33  1  1
  7  8  1  0
  7 34  1  0
  7 35  1  0
  8  9  1  0
  9 10  1  0
  9 36  1  0
  9 37  1  0
 10 11  1  0
 10 38  1  0
 10 39  1  0
 11 23  1  0
 11 12  1  0
 11 40  1  6
 12 13  1  0
 13 14  1  0
 13 20  1  0
 13 41  1  6
 14 19  1  0
 14 15  2  0
 15 16  1  0
 15 42  1  0
 16 17  2  0
 17 18  1  0
 17 43  1  0
 18 19  2  0
 18 44  1  0
 20 21  1  0
 20 45  1  0
 20 46  1  0
 21 22  1  0
 22 23  1  0
 22 47  1  0
 22 48  1  0
 23 49  1  6
 24 25  1  0
 24 50  1  0
 24 51  1  0
 25 52  1  0
 25 53  1  0
M  CHG  1   5   1
M  END
>  <i_m_ct_stereo_status>  (112) 
1

>  <s_m_source_file>  (112) 
/var/tmp/pbs.5076255.sched01/tmpbrsd6n1o/39u_ie0p0h.sdf

>  <i_m_source_file_index>  (112) 
5

>  <i_lp_mmshare_version>  (112) 
48012

>  <i_f3d_flags>  (112) 
0

>  <s_epik_input>  (112) 
W0NIM11OMVtDSDJdW0NIMl1OKFtDSDJdW0NIMl0xKVtDQEhdKFtDSDJdT1tDSDJdW0NIMl0yKVtDQEBIXShbQ0BASF0yMylbQ0gyXU9bQ0gyXVtDQEBIXShPMyljNFtjSF1uW2NIXVtjSF1uNA==

>  <s_epik_cmdline>  (112) 
J2VwaWtfcHl0aG9uJywgJy1waHQnLCAnMi4wJywgJy1waCcsICc3LjAnLCAnLXRuJywgJzgnLCAnLW1hJywgJzIwMCcsICctaW1hZScsICc8aW5maWxlLm1hZT4nLCAnLW9tYWUnLCAnPG91dGZpbGUubWFlPic=

>  <r_lp_tautomer_probability>  (112) 
1

>  <r_epik_Ionization_Penalty>  (112) 
0.0264123

>  <r_epik_Ionization_Penalty_Charging>  (112) 
0.025208

>  <r_epik_Ionization_Penalty_Neutral>  (112) 
0.00120439

>  <r_epik_State_Penalty>  (112) 
0.299211

>  <r_epik_Charging_Adjusted_Penalty>  (112) 
0.324419

>  <i_epik_Tot_Q>  (112) 
1

>  <i_epik_Tot_abs_Q>  (112) 
1

>  <s_lp_Force_Field>  (112) 
OPLS3e

>  <r_lp_Energy>  (112) 
55.3764

>  <b_lp_Chiralities_Consistent>  (112) 
1

>  <s_lp_Variant>  (112) 
35:0-1

>  <s_i_glide_gridfile>  (112) 
pfpi4k_grid

>  <i_i_glide_lignum>  (112) 
5

>  <i_i_glide_rotatable_bonds>  (112) 
2

>  <r_i_docking_score>  (112) 
-2.73033

>  <r_i_glide_ligand_efficiency>  (112) 
-0.109213

>  <r_i_glide_ligand_efficiency_sa>  (112) 
-0.319342

>  <r_i_glide_ligand_efficiency_ln>  (112) 
-0.647171

>  <r_i_glide_gscore>  (112) 
-2.73033

>  <r_i_glide_lipo>  (112) 
-0.320929

>  <r_i_glide_hbond>  (112) 
0

>  <r_i_glide_metal>  (112) 
-0

>  <r_i_glide_rewards>  (112) 
-1.02649

>  <r_i_glide_evdw>  (112) 
-22.0908

>  <r_i_glide_ecoul>  (112) 
-3.88427

>  <r_i_glide_erotb>  (112) 
0.311985

>  <r_i_glide_esite>  (112) 
-0.00771918

>  <r_i_glide_emodel>  (112) 
-30.8975

>  <r_i_glide_energy>  (112) 
-25.9751

>  <r_i_glide_einternal>  (112) 
1.00648

>  <r_i_glide_intrahb_reward>  (112) 
-0

>  <i_i_glide_confnum>  (112) 
1

>  <i_i_glide_posenum>  (112) 
40

>  <r_i_glide_eff_state_penalty>  (112) 
0

>  <ligand_id>  (112) 
35

>  <original_smiles>  (112) 
CN1CCN(C2COCCC3OC(c4cnccn4)COCC32)CC1

>  <smiles>  (112) 
[H]c1nc([H])c(C2([H])OC3([H])C([H])([H])C([H])([H])OC([H])([H])C([H])([N+]4([H])C([H])([H])C([H])([H])N(C([H])([H])[H])C([H])([H])C4([H])[H])C3([H])C([H])([H])OC2([H])[H])nc1[H]

$$$$
35:1:0
     RDKit          3D

 54 57  0  0  1  0  0  0  0  0999 V2000
   -0.7995   -9.0559    3.5513 C   0  0  0  0  0  0  0  0  0  0  0  0
    0.5482   -8.4441    3.5279 N   0  0  0  0  0  0  0  0  0  0  0  0
    0.7114   -7.4034    4.5698 C   0  0  0  0  0  0  0  0  0  0  0  0
    2.1242   -6.8090    4.5207 C   0  0  0  0  0  0  0  0  0  0  0  0
    2.4585   -6.2417    3.2072 N   0  0  0  0  0  0  0  0  0  0  0  0
    3.8146   -5.6396    3.1781 C   0  0  2  0  0  0  0  0  0  0  0  0
    4.0806   -4.6015    4.3091 C   0  0  0  0  0  0  0  0  0  0  0  0
    3.0928   -3.5880    4.4071 O   0  0  0  0  0  0  0  0  0  0  0  0
    3.0867   -2.6439    3.3500 C   0  0  0  0  0  0  0  0  0  0  0  0
    2.3652   -3.2234    2.1335 C   0  0  0  0  0  0  0  0  0  0  0  0
    3.2545   -4.0311    1.1705 C   0  0  1  0  0  0  0  0  0  0  0  0
    3.8915   -3.0667    0.3477 O   0  0  0  0  0  0  0  0  0  0  0  0
    4.5600   -3.5703   -0.8003 C   0  0  1  0  0  0  0  0  0  0  0  0
    4.3565   -2.6384   -1.9851 C   0  0  0  0  0  0  0  0  0  0  0  0
    4.0433   -3.1309   -3.2730 C   0  0  0  0  0  0  0  0  0  0  0  0
    3.8146   -2.3108   -4.3181 N   0  0  0  0  0  0  0  0  0  0  0  0
    3.8704   -0.9829   -4.0606 C   0  0  0  0  0  0  0  0  0  0  0  0
    4.2083   -0.4922   -2.7844 C   0  0  0  0  0  0  0  0  0  0  0  0
    4.4668   -1.3066   -1.7437 N   0  0  0  0  0  0  0  0  0  0  0  0
    6.0391   -3.6609   -0.4051 C   0  0  0  0  0  0  0  0  0  0  0  0
    6.2905   -4.7644    0.4525 O   0  0  0  0  0  0  0  0  0  0  0  0
    5.7368   -4.6624    1.7582 C   0  0  0  0  0  0  0  0  0  0  0  0
    4.2438   -5.0664    1.7875 C   0  0  1  0  0  0  0  0  0  0  0  0
    2.2985   -7.2994    2.2010 C   0  0  0  0  0  0  0  0  0  0  0  0
    0.8902   -7.8969    2.1968 C   0  0  0  0  0  0  0  0  0  0  0  0
   -1.5720   -8.3122    3.3386 H   0  0  0  0  0  0  0  0  0  0  0  0
   -0.9928   -9.4440    4.5481 H   0  0  0  0  0  0  0  0  0  0  0  0
   -0.8841   -9.8636    2.8179 H   0  0  0  0  0  0  0  0  0  0  0  0
   -0.0182   -6.6044    4.4251 H   0  0  0  0  0  0  0  0  0  0  0  0
    0.5257   -7.8193    5.5592 H   0  0  0  0  0  0  0  0  0  0  0  0
    2.1456   -6.0376    5.2924 H   0  0  0  0  0  0  0  0  0  0  0  0
    2.8642   -7.5624    4.7995 H   0  0  0  0  0  0  0  0  0  0  0  0
    4.5183   -6.4499    3.3706 H   0  0  0  0  0  0  0  0  0  0  0  0
    4.0852   -5.1167    5.2693 H   0  0  0  0  0  0  0  0  0  0  0  0
    5.0786   -4.1616    4.2591 H   0  0  0  0  0  0  0  0  0  0  0  0
    2.5198   -1.7854    3.7105 H   0  0  0  0  0  0  0  0  0  0  0  0
    4.0851   -2.2800    3.1103 H   0  0  0  0  0  0  0  0  0  0  0  0
    1.5226   -3.8154    2.4874 H   0  0  0  0  0  0  0  0  0  0  0  0
    1.9196   -2.4037    1.5693 H   0  0  0  0  0  0  0  0  0  0  0  0
    2.5564   -4.5759    0.5363 H   0  0  0  0  0  0  0  0  0  0  0  0
    4.1893   -4.5505   -1.0977 H   0  0  0  0  0  0  0  0  0  0  0  0
    3.9667   -4.1888   -3.4767 H   0  0  0  0  0  0  0  0  0  0  0  0
    3.6901   -0.3129   -4.8903 H   0  0  0  0  0  0  0  0  0  0  0  0
    4.2629    0.5717   -2.6136 H   0  0  0  0  0  0  0  0  0  0  0  0
    6.6254   -3.8284   -1.3077 H   0  0  0  0  0  0  0  0  0  0  0  0
    6.3912   -2.7146    0.0154 H   0  0  0  0  0  0  0  0  0  0  0  0
    6.2920   -5.3878    2.3575 H   0  0  0  0  0  0  0  0  0  0  0  0
    5.9247   -3.6821    2.1921 H   0  0  0  0  0  0  0  0  0  0  0  0
    4.2607   -5.9106    1.1038 H   0  0  0  0  0  0  0  0  0  0  0  0
    2.4438   -6.9126    1.1913 H   0  0  0  0  0  0  0  0  0  0  0  0
    3.0435   -8.0816    2.3557 H   0  0  0  0  0  0  0  0  0  0  0  0
    0.8464   -8.6725    1.4391 H   0  0  0  0  0  0  0  0  0  0  0  0
    0.1685   -7.1313    1.9078 H   0  0  0  0  0  0  0  0  0  0  0  0
    1.2360   -9.1563    3.7303 H   0  0  0  0  0  0  0  0  0  0  0  0
  1  2  1  0
  1 26  1  0
  1 27  1  0
  1 28  1  0
  2 25  1  0
  2  3  1  0
  2 54  1  0
  3  4  1  0
  3 29  1  0
  3 30  1  0
  4  5  1  0
  4 31  1  0
  4 32  1  0
  5  6  1  0
  5 24  1  0
  6 23  1  0
  6  7  1  0
  6 33  1  1
  7  8  1  0
  7 34  1  0
  7 35  1  0
  8  9  1  0
  9 10  1  0
  9 36  1  0
  9 37  1  0
 10 11  1  0
 10 38  1  0
 10 39  1  0
 11 23  1  0
 11 12  1  0
 11 40  1  6
 12 13  1  0
 13 14  1  0
 13 20  1  0
 13 41  1  6
 14 19  1  0
 14 15  2  0
 15 16  1  0
 15 42  1  0
 16 17  2  0
 17 18  1  0
 17 43  1  0
 18 19  2  0
 18 44  1  0
 20 21  1  0
 20 45  1  0
 20 46  1  0
 21 22  1  0
 22 23  1  0
 22 47  1  0
 22 48  1  0
 23 49  1  6
 24 25  1  0
 24 50  1  0
 24 51  1  0
 25 52  1  0
 25 53  1  0
M  CHG  1   2   1
M  END
>  <i_m_ct_stereo_status>  (113) 
1

>  <s_m_source_file>  (113) 
/var/tmp/pbs.5076255.sched01/tmpbrsd6n1o/39u_ie0p0h.sdf

>  <i_m_source_file_index>  (113) 
6

>  <i_lp_mmshare_version>  (113) 
48012

>  <i_f3d_flags>  (113) 
0

>  <s_epik_input>  (113) 
W0NIM11OMVtDSDJdW0NIMl1OKFtDSDJdW0NIMl0xKVtDQEhdKFtDSDJdT1tDSDJdW0NIMl0yKVtDQEBIXShbQ0BASF0yMylbQ0gyXU9bQ0gyXVtDQEBIXShPMyljNFtjSF1uW2NIXVtjSF1uNA==

>  <s_epik_cmdline>  (113) 
J2VwaWtfcHl0aG9uJywgJy1waHQnLCAnMi4wJywgJy1waCcsICc3LjAnLCAnLXRuJywgJzgnLCAnLW1hJywgJzIwMCcsICctaW1hZScsICc8aW5maWxlLm1hZT4nLCAnLW9tYWUnLCAnPG91dGZpbGUubWFlPic=

>  <r_epik_Ionization_Penalty>  (113) 
0.044484

>  <r_epik_Ionization_Penalty_Charging>  (113) 
0.0388925

>  <r_epik_Ionization_Penalty_Neutral>  (113) 
0.00559153

>  <r_epik_State_Penalty>  (113) 
0.580739

>  <r_epik_Charging_Adjusted_Penalty>  (113) 
0.619632

>  <i_epik_Tot_Q>  (113) 
1

>  <i_epik_Tot_abs_Q>  (113) 
1

>  <s_lp_Force_Field>  (113) 
OPLS3e

>  <r_lp_Energy>  (113) 
58.0399

>  <b_lp_Chiralities_Consistent>  (113) 
1

>  <s_lp_Variant>  (113) 
35:0-2

>  <s_i_glide_gridfile>  (113) 
pfpi4k_grid

>  <i_i_glide_lignum>  (113) 
6

>  <i_i_glide_rotatable_bonds>  (113) 
2

>  <r_i_docking_score>  (113) 
-3.6181

>  <r_i_glide_ligand_efficiency>  (113) 
-0.144724

>  <r_i_glide_ligand_efficiency_sa>  (113) 
-0.423176

>  <r_i_glide_ligand_efficiency_ln>  (113) 
-0.857599

>  <r_i_glide_gscore>  (113) 
-3.6181

>  <r_i_glide_lipo>  (113) 
-0.548949

>  <r_i_glide_hbond>  (113) 
-0.32

>  <r_i_glide_metal>  (113) 
-0

>  <r_i_glide_rewards>  (113) 
-1.02649

>  <r_i_glide_evdw>  (113) 
-23.4343

>  <r_i_glide_ecoul>  (113) 
-5.58797

>  <r_i_glide_erotb>  (113) 
0.311985

>  <r_i_glide_esite>  (113) 
-0.0247369

>  <r_i_glide_emodel>  (113) 
-38.5043

>  <r_i_glide_energy>  (113) 
-29.0223

>  <r_i_glide_einternal>  (113) 
0.0348608

>  <r_i_glide_intrahb_reward>  (113) 
-0

>  <i_i_glide_confnum>  (113) 
3

>  <i_i_glide_posenum>  (113) 
34

>  <r_i_glide_eff_state_penalty>  (113) 
0

>  <ligand_id>  (113) 
35

>  <original_smiles>  (113) 
CN1CCN(C2COCCC3OC(c4cnccn4)COCC32)CC1

>  <smiles>  (113) 
[H]c1nc([H])c(C2([H])OC3([H])C([H])([H])C([H])([H])OC([H])([H])C([H])(N4C([H])([H])C([H])([H])[N+]([H])(C([H])([H])[H])C([H])([H])C4([H])[H])C3([H])C([H])([H])OC2([H])[H])nc1[H]

$$$$
35:1:1
     RDKit          3D

 54 57  0  0  1  0  0  0  0  0999 V2000
    0.5885  -10.8815    3.3215 C   0  0  0  0  0  0  0  0  0  0  0  0
    1.7682   -9.9890    3.3380 N   0  0  0  0  0  0  0  0  0  0  0  0
    1.6600   -8.9408    4.3784 C   0  0  0  0  0  0  0  0  0  0  0  0
    2.9182   -8.0595    4.3849 C   0  0  0  0  0  0  0  0  0  0  0  0
    3.1817   -7.4254    3.0865 N   0  0  0  0  0  0  0  0  0  0  0  0
    4.3742   -6.5436    3.1057 C   0  0  2  0  0  0  0  0  0  0  0  0
    4.4019   -5.5298    4.2895 C   0  0  0  0  0  0  0  0  0  0  0  0
    3.2153   -4.7589    4.4300 O   0  0  0  0  0  0  0  0  0  0  0  0
    3.0057   -3.7901    3.4167 C   0  0  0  0  0  0  0  0  0  0  0  0
    2.4366   -4.4521    2.1627 C   0  0  0  0  0  0  0  0  0  0  0  0
    3.4813   -4.9963    1.1702 C   0  0  1  0  0  0  0  0  0  0  0  0
    3.8940   -3.8769    0.3996 O   0  0  0  0  0  0  0  0  0  0  0  0
    4.6684   -4.1480   -0.7584 C   0  0  1  0  0  0  0  0  0  0  0  0
    4.2723   -3.2141   -1.9013 C   0  0  0  0  0  0  0  0  0  0  0  0
    4.3987   -3.6089   -3.2546 C   0  0  0  0  0  0  0  0  0  0  0  0
    3.9920   -2.8027   -4.2661 N   0  0  0  0  0  0  0  0  0  0  0  0
    3.4693   -1.6065   -3.9208 C   0  0  0  0  0  0  0  0  0  0  0  0
    3.3707   -1.2074   -2.5767 C   0  0  0  0  0  0  0  0  0  0  0  0
    3.7920   -1.9957   -1.5602 N   0  0  0  0  0  0  0  0  0  0  0  0
    6.1200   -3.9138   -0.3285 C   0  0  0  0  0  0  0  0  0  0  0  0
    6.6110   -4.9888    0.4667 O   0  0  0  0  0  0  0  0  0  0  0  0
    6.0378   -5.0986    1.7655 C   0  0  0  0  0  0  0  0  0  0  0  0
    4.6711   -5.8281    1.7517 C   0  0  1  0  0  0  0  0  0  0  0  0
    3.2885   -8.4863    2.0799 C   0  0  0  0  0  0  0  0  0  0  0  0
    2.0426   -9.3794    2.0146 C   0  0  0  0  0  0  0  0  0  0  0  0
   -0.3184  -10.3163    3.0712 H   0  0  0  0  0  0  0  0  0  0  0  0
    0.4269  -11.3507    4.2981 H   0  0  0  0  0  0  0  0  0  0  0  0
    0.6985  -11.6793    2.5811 H   0  0  0  0  0  0  0  0  0  0  0  0
    0.7822   -8.3186    4.1950 H   0  0  0  0  0  0  0  0  0  0  0  0
    1.5265   -9.3960    5.3624 H   0  0  0  0  0  0  0  0  0  0  0  0
    2.7378   -7.3060    5.1528 H   0  0  0  0  0  0  0  0  0  0  0  0
    3.7861   -8.6377    4.7044 H   0  0  0  0  0  0  0  0  0  0  0  0
    5.2337   -7.1879    3.2833 H   0  0  0  0  0  0  0  0  0  0  0  0
    4.5186   -6.0767    5.2267 H   0  0  0  0  0  0  0  0  0  0  0  0
    5.2755   -4.8746    4.2721 H   0  0  0  0  0  0  0  0  0  0  0  0
    2.2634   -3.0977    3.8067 H   0  0  0  0  0  0  0  0  0  0  0  0
    3.9018   -3.2039    3.2098 H   0  0  0  0  0  0  0  0  0  0  0  0
    1.7370   -5.2304    2.4615 H   0  0  0  0  0  0  0  0  0  0  0  0
    1.8303   -3.7139    1.6348 H   0  0  0  0  0  0  0  0  0  0  0  0
    2.9252   -5.6519    0.4971 H   0  0  0  0  0  0  0  0  0  0  0  0
    4.5355   -5.1743   -1.1034 H   0  0  0  0  0  0  0  0  0  0  0  0
    4.7838   -4.5819   -3.5391 H   0  0  0  0  0  0  0  0  0  0  0  0
    3.1234   -0.9643   -4.7179 H   0  0  0  0  0  0  0  0  0  0  0  0
    2.9158   -0.2658   -2.3267 H   0  0  0  0  0  0  0  0  0  0  0  0
    6.7392   -3.8487   -1.2223 H   0  0  0  0  0  0  0  0  0  0  0  0
    6.2352   -2.9479    0.1667 H   0  0  0  0  0  0  0  0  0  0  0  0
    6.7388   -5.7066    2.3386 H   0  0  0  0  0  0  0  0  0  0  0  0
    5.9992   -4.1227    2.2515 H   0  0  0  0  0  0  0  0  0  0  0  0
    4.8671   -6.6148    1.0286 H   0  0  0  0  0  0  0  0  0  0  0  0
    3.4007   -8.0711    1.0808 H   0  0  0  0  0  0  0  0  0  0  0  0
    4.1743   -9.0932    2.2673 H   0  0  0  0  0  0  0  0  0  0  0  0
    2.2033  -10.1583    1.2699 H   0  0  0  0  0  0  0  0  0  0  0  0
    1.1846   -8.7893    1.6870 H   0  0  0  0  0  0  0  0  0  0  0  0
    2.5838  -10.5422    3.5714 H   0  0  0  0  0  0  0  0  0  0  0  0
  1  2  1  0
  1 26  1  0
  1 27  1  0
  1 28  1  0
  2 25  1  0
  2  3  1  0
  2 54  1  0
  3  4  1  0
  3 29  1  0
  3 30  1  0
  4  5  1  0
  4 31  1  0
  4 32  1  0
  5  6  1  0
  5 24  1  0
  6 23  1  0
  6  7  1  0
  6 33  1  1
  7  8  1  0
  7 34  1  0
  7 35  1  0
  8  9  1  0
  9 10  1  0
  9 36  1  0
  9 37  1  0
 10 11  1  0
 10 38  1  0
 10 39  1  0
 11 23  1  0
 11 12  1  0
 11 40  1  6
 12 13  1  0
 13 14  1  0
 13 20  1  0
 13 41  1  6
 14 19  1  0
 14 15  2  0
 15 16  1  0
 15 42  1  0
 16 17  2  0
 17 18  1  0
 17 43  1  0
 18 19  2  0
 18 44  1  0
 20 21  1  0
 20 45  1  0
 20 46  1  0
 21 22  1  0
 22 23  1  0
 22 47  1  0
 22 48  1  0
 23 49  1  6
 24 25  1  0
 24 50  1  0
 24 51  1  0
 25 52  1  0
 25 53  1  0
M  CHG  1   2   1
M  END
>  <i_m_ct_stereo_status>  (114) 
1

>  <s_m_source_file>  (114) 
/var/tmp/pbs.5076255.sched01/tmpbrsd6n1o/39u_ie0p0h.sdf

>  <i_m_source_file_index>  (114) 
6

>  <i_lp_mmshare_version>  (114) 
48012

>  <i_f3d_flags>  (114) 
0

>  <s_epik_input>  (114) 
W0NIM11OMVtDSDJdW0NIMl1OKFtDSDJdW0NIMl0xKVtDQEhdKFtDSDJdT1tDSDJdW0NIMl0yKVtDQEBIXShbQ0BASF0yMylbQ0gyXU9bQ0gyXVtDQEBIXShPMyljNFtjSF1uW2NIXVtjSF1uNA==

>  <s_epik_cmdline>  (114) 
J2VwaWtfcHl0aG9uJywgJy1waHQnLCAnMi4wJywgJy1waCcsICc3LjAnLCAnLXRuJywgJzgnLCAnLW1hJywgJzIwMCcsICctaW1hZScsICc8aW5maWxlLm1hZT4nLCAnLW9tYWUnLCAnPG91dGZpbGUubWFlPic=

>  <r_epik_Ionization_Penalty>  (114) 
0.044484

>  <r_epik_Ionization_Penalty_Charging>  (114) 
0.0388925

>  <r_epik_Ionization_Penalty_Neutral>  (114) 
0.00559153

>  <r_epik_State_Penalty>  (114) 
0.580739

>  <r_epik_Charging_Adjusted_Penalty>  (114) 
0.619632

>  <i_epik_Tot_Q>  (114) 
1

>  <i_epik_Tot_abs_Q>  (114) 
1

>  <s_lp_Force_Field>  (114) 
OPLS3e

>  <r_lp_Energy>  (114) 
58.0399

>  <b_lp_Chiralities_Consistent>  (114) 
1

>  <s_lp_Variant>  (114) 
35:0-2

>  <s_i_glide_gridfile>  (114) 
pfpi4k_grid

>  <i_i_glide_lignum>  (114) 
6

>  <i_i_glide_rotatable_bonds>  (114) 
2

>  <r_i_docking_score>  (114) 
-3.53153

>  <r_i_glide_ligand_efficiency>  (114) 
-0.141261

>  <r_i_glide_ligand_efficiency_sa>  (114) 
-0.41305

>  <r_i_glide_ligand_efficiency_ln>  (114) 
-0.837078

>  <r_i_glide_gscore>  (114) 
-3.53153

>  <r_i_glide_lipo>  (114) 
-0.444108

>  <r_i_glide_hbond>  (114) 
-0.282462

>  <r_i_glide_metal>  (114) 
-0

>  <r_i_glide_rewards>  (114) 
-1.02649

>  <r_i_glide_evdw>  (114) 
-22.9523

>  <r_i_glide_ecoul>  (114) 
-6.28557

>  <r_i_glide_erotb>  (114) 
0.311985

>  <r_i_glide_esite>  (114) 
0

>  <r_i_glide_emodel>  (114) 
-38.3771

>  <r_i_glide_energy>  (114) 
-29.2379

>  <r_i_glide_einternal>  (114) 
0.237393

>  <r_i_glide_intrahb_reward>  (114) 
-0

>  <i_i_glide_confnum>  (114) 
1

>  <i_i_glide_posenum>  (114) 
2

>  <r_i_glide_eff_state_penalty>  (114) 
0

>  <ligand_id>  (114) 
35

>  <original_smiles>  (114) 
CN1CCN(C2COCCC3OC(c4cnccn4)COCC32)CC1

>  <smiles>  (114) 
[H]c1nc([H])c(C2([H])OC3([H])C([H])([H])C([H])([H])OC([H])([H])C([H])(N4C([H])([H])C([H])([H])[N+]([H])(C([H])([H])[H])C([H])([H])C4([H])[H])C3([H])C([H])([H])OC2([H])[H])nc1[H]

$$$$
35:1:2
     RDKit          3D

 54 57  0  0  1  0  0  0  0  0999 V2000
    3.8065  -12.9896    4.8633 C   0  0  0  0  0  0  0  0  0  0  0  0
    3.0164  -11.7597    5.1011 N   0  0  0  0  0  0  0  0  0  0  0  0
    1.6704  -11.8139    4.4887 C   0  0  0  0  0  0  0  0  0  0  0  0
    0.8980  -10.5225    4.7934 C   0  0  0  0  0  0  0  0  0  0  0  0
    1.5876   -9.3173    4.3153 N   0  0  0  0  0  0  0  0  0  0  0  0
    0.8230   -8.0732    4.5657 C   0  0  2  0  0  0  0  0  0  0  0  0
   -0.6772   -8.1433    4.1479 C   0  0  0  0  0  0  0  0  0  0  0  0
   -0.9068   -8.5814    2.8148 O   0  0  0  0  0  0  0  0  0  0  0  0
   -0.4985   -7.6831    1.7995 C   0  0  0  0  0  0  0  0  0  0  0  0
    1.0120   -7.7484    1.5873 C   0  0  0  0  0  0  0  0  0  0  0  0
    1.8434   -6.8163    2.4869 C   0  0  1  0  0  0  0  0  0  0  0  0
    1.7804   -5.5388    1.8697 O   0  0  0  0  0  0  0  0  0  0  0  0
    2.7042   -4.5684    2.3452 C   0  0  1  0  0  0  0  0  0  0  0  0
    3.2775   -3.7588    1.1856 C   0  0  0  0  0  0  0  0  0  0  0  0
    4.4487   -2.9720    1.3270 C   0  0  0  0  0  0  0  0  0  0  0  0
    4.9571   -2.2535    0.2944 N   0  0  0  0  0  0  0  0  0  0  0  0
    4.2895   -2.3226   -0.8779 C   0  0  0  0  0  0  0  0  0  0  0  0
    3.1182   -3.1023   -1.0218 C   0  0  0  0  0  0  0  0  0  0  0  0
    2.6095   -3.8191    0.0072 N   0  0  0  0  0  0  0  0  0  0  0  0
    1.8941   -3.7021    3.3228 C   0  0  0  0  0  0  0  0  0  0  0  0
    1.6545   -4.3757    4.5513 O   0  0  0  0  0  0  0  0  0  0  0  0
    0.7820   -5.4970    4.4876 C   0  0  0  0  0  0  0  0  0  0  0  0
    1.5012   -6.7813    4.0100 C   0  0  1  0  0  0  0  0  0  0  0  0
    2.9205   -9.2844    4.9255 C   0  0  0  0  0  0  0  0  0  0  0  0
    3.7384  -10.5514    4.6398 C   0  0  0  0  0  0  0  0  0  0  0  0
    3.9594  -13.1425    3.7858 H   0  0  0  0  0  0  0  0  0  0  0  0
    3.3047  -13.8716    5.2644 H   0  0  0  0  0  0  0  0  0  0  0  0
    4.7882  -12.9330    5.3461 H   0  0  0  0  0  0  0  0  0  0  0  0
    1.7470  -11.9452    3.4073 H   0  0  0  0  0  0  0  0  0  0  0  0
    1.1112  -12.6603    4.8801 H   0  0  0  0  0  0  0  0  0  0  0  0
   -0.0659  -10.6383    4.2943 H   0  0  0  0  0  0  0  0  0  0  0  0
    0.6952  -10.4447    5.8628 H   0  0  0  0  0  0  0  0  0  0  0  0
    0.7956   -7.9411    5.6459 H   0  0  0  0  0  0  0  0  0  0  0  0
   -1.1909   -8.8566    4.7938 H   0  0  0  0  0  0  0  0  0  0  0  0
   -1.2128   -7.2098    4.3293 H   0  0  0  0  0  0  0  0  0  0  0  0
   -0.9845   -8.0141    0.8847 H   0  0  0  0  0  0  0  0  0  0  0  0
   -0.8463   -6.6686    1.9873 H   0  0  0  0  0  0  0  0  0  0  0  0
    1.3412   -8.7824    1.6797 H   0  0  0  0  0  0  0  0  0  0  0  0
    1.2189   -7.4784    0.5521 H   0  0  0  0  0  0  0  0  0  0  0  0
    2.8715   -7.1700    2.3890 H   0  0  0  0  0  0  0  0  0  0  0  0
    3.5543   -5.0218    2.8552 H   0  0  0  0  0  0  0  0  0  0  0  0
    4.9822   -2.9087    2.2636 H   0  0  0  0  0  0  0  0  0  0  0  0
    4.6881   -1.7635   -1.7128 H   0  0  0  0  0  0  0  0  0  0  0  0
    2.5887   -3.1564   -1.9592 H   0  0  0  0  0  0  0  0  0  0  0  0
    2.4747   -2.8145    3.5707 H   0  0  0  0  0  0  0  0  0  0  0  0
    0.9707   -3.3393    2.8709 H   0  0  0  0  0  0  0  0  0  0  0  0
    0.4527   -5.6594    5.5146 H   0  0  0  0  0  0  0  0  0  0  0  0
   -0.1145   -5.2700    3.9136 H   0  0  0  0  0  0  0  0  0  0  0  0
    2.4530   -6.6889    4.5273 H   0  0  0  0  0  0  0  0  0  0  0  0
    3.5121   -8.4556    4.5362 H   0  0  0  0  0  0  0  0  0  0  0  0
    2.8361   -9.1333    6.0016 H   0  0  0  0  0  0  0  0  0  0  0  0
    4.7092  -10.4780    5.1285 H   0  0  0  0  0  0  0  0  0  0  0  0
    3.9321  -10.6196    3.5670 H   0  0  0  0  0  0  0  0  0  0  0  0
    2.8429  -11.6755    6.0970 H   0  0  0  0  0  0  0  0  0  0  0  0
  1  2  1  0
  1 26  1  0
  1 27  1  0
  1 28  1  0
  2 25  1  0
  2  3  1  0
  2 54  1  0
  3  4  1  0
  3 29  1  0
  3 30  1  0
  4  5  1  0
  4 31  1  0
  4 32  1  0
  5  6  1  0
  5 24  1  0
  6 23  1  0
  6  7  1  0
  6 33  1  1
  7  8  1  0
  7 34  1  0
  7 35  1  0
  8  9  1  0
  9 10  1  0
  9 36  1  0
  9 37  1  0
 10 11  1  0
 10 38  1  0
 10 39  1  0
 11 23  1  0
 11 12  1  0
 11 40  1  1
 12 13  1  0
 13 14  1  0
 13 20  1  0
 13 41  1  1
 14 19  1  0
 14 15  2  0
 15 16  1  0
 15 42  1  0
 16 17  2  0
 17 18  1  0
 17 43  1  0
 18 19  2  0
 18 44  1  0
 20 21  1  0
 20 45  1  0
 20 46  1  0
 21 22  1  0
 22 23  1  0
 22 47  1  0
 22 48  1  0
 23 49  1  1
 24 25  1  0
 24 50  1  0
 24 51  1  0
 25 52  1  0
 25 53  1  0
M  CHG  1   2   1
M  END
>  <i_m_ct_stereo_status>  (115) 
1

>  <s_m_source_file>  (115) 
/var/tmp/pbs.5076255.sched01/tmpbrsd6n1o/39u_ie0p0h.sdf

>  <i_m_source_file_index>  (115) 
6

>  <i_lp_mmshare_version>  (115) 
48012

>  <i_f3d_flags>  (115) 
0

>  <s_epik_input>  (115) 
W0NIM11OMVtDSDJdW0NIMl1OKFtDSDJdW0NIMl0xKVtDQEhdKFtDSDJdT1tDSDJdW0NIMl0yKVtDQEBIXShbQ0BASF0yMylbQ0gyXU9bQ0gyXVtDQEBIXShPMyljNFtjSF1uW2NIXVtjSF1uNA==

>  <s_epik_cmdline>  (115) 
J2VwaWtfcHl0aG9uJywgJy1waHQnLCAnMi4wJywgJy1waCcsICc3LjAnLCAnLXRuJywgJzgnLCAnLW1hJywgJzIwMCcsICctaW1hZScsICc8aW5maWxlLm1hZT4nLCAnLW9tYWUnLCAnPG91dGZpbGUubWFlPic=

>  <r_epik_Ionization_Penalty>  (115) 
0.044484

>  <r_epik_Ionization_Penalty_Charging>  (115) 
0.0388925

>  <r_epik_Ionization_Penalty_Neutral>  (115) 
0.00559153

>  <r_epik_State_Penalty>  (115) 
0.580739

>  <r_epik_Charging_Adjusted_Penalty>  (115) 
0.619632

>  <i_epik_Tot_Q>  (115) 
1

>  <i_epik_Tot_abs_Q>  (115) 
1

>  <s_lp_Force_Field>  (115) 
OPLS3e

>  <r_lp_Energy>  (115) 
58.0399

>  <b_lp_Chiralities_Consistent>  (115) 
1

>  <s_lp_Variant>  (115) 
35:0-2

>  <s_i_glide_gridfile>  (115) 
pfpi4k_grid

>  <i_i_glide_lignum>  (115) 
6

>  <i_i_glide_rotatable_bonds>  (115) 
2

>  <r_i_docking_score>  (115) 
-2.73581

>  <r_i_glide_ligand_efficiency>  (115) 
-0.109432

>  <r_i_glide_ligand_efficiency_sa>  (115) 
-0.319982

>  <r_i_glide_ligand_efficiency_ln>  (115) 
-0.648469

>  <r_i_glide_gscore>  (115) 
-2.73581

>  <r_i_glide_lipo>  (115) 
-0.0326529

>  <r_i_glide_hbond>  (115) 
-0.0848047

>  <r_i_glide_metal>  (115) 
-0

>  <r_i_glide_rewards>  (115) 
-1.02649

>  <r_i_glide_evdw>  (115) 
-22.3596

>  <r_i_glide_ecoul>  (115) 
-4.76759

>  <r_i_glide_erotb>  (115) 
0.311985

>  <r_i_glide_esite>  (115) 
-0.0707274

>  <r_i_glide_emodel>  (115) 
-33.9003

>  <r_i_glide_energy>  (115) 
-27.1272

>  <r_i_glide_einternal>  (115) 
0.725103

>  <r_i_glide_intrahb_reward>  (115) 
-0

>  <i_i_glide_confnum>  (115) 
2

>  <i_i_glide_posenum>  (115) 
24

>  <r_i_glide_eff_state_penalty>  (115) 
0

>  <ligand_id>  (115) 
35

>  <original_smiles>  (115) 
CN1CCN(C2COCCC3OC(c4cnccn4)COCC32)CC1

>  <smiles>  (115) 
[H]c1nc([H])c(C2([H])OC3([H])C([H])([H])C([H])([H])OC([H])([H])C([H])(N4C([H])([H])C([H])([H])[N+]([H])(C([H])([H])[H])C([H])([H])C4([H])[H])C3([H])C([H])([H])OC2([H])[H])nc1[H]

$$$$
35:2:0
     RDKit          3D

 53 56  0  0  1  0  0  0  0  0999 V2000
   -1.7535   -8.3573    3.6594 C   0  0  0  0  0  0  0  0  0  0  0  0
   -0.3536   -7.9809    3.5899 N   0  0  0  0  0  0  0  0  0  0  0  0
    0.0200   -7.4947    2.2690 C   0  0  0  0  0  0  0  0  0  0  0  0
    1.5077   -7.1174    2.2034 C   0  0  0  0  0  0  0  0  0  0  0  0
    1.8681   -6.0881    3.1914 N   0  0  0  0  0  0  0  0  0  0  0  0
    3.3020   -5.7073    3.1227 C   0  0  2  0  0  0  0  0  0  0  0  0
    3.7651   -4.7548    4.2656 C   0  0  0  0  0  0  0  0  0  0  0  0
    2.9546   -3.5996    4.4308 O   0  0  0  0  0  0  0  0  0  0  0  0
    3.0480   -2.6393    3.3922 C   0  0  0  0  0  0  0  0  0  0  0  0
    2.2053   -3.0729    2.1954 C   0  0  0  0  0  0  0  0  0  0  0  0
    2.9218   -3.9777    1.1802 C   0  0  1  0  0  0  0  0  0  0  0  0
    3.6628   -3.0919    0.3540 O   0  0  0  0  0  0  0  0  0  0  0  0
    4.2086   -3.6577   -0.8273 C   0  0  1  0  0  0  0  0  0  0  0  0
    4.1065   -2.6760   -1.9898 C   0  0  0  0  0  0  0  0  0  0  0  0
    3.7507   -3.1009   -3.2897 C   0  0  0  0  0  0  0  0  0  0  0  0
    3.6276   -2.2257   -4.3152 N   0  0  0  0  0  0  0  0  0  0  0  0
    3.8317   -0.9254   -4.0231 C   0  0  0  0  0  0  0  0  0  0  0  0
    4.2165   -0.5022   -2.7349 C   0  0  0  0  0  0  0  0  0  0  0  0
    4.3698   -1.3783   -1.7167 N   0  0  0  0  0  0  0  0  0  0  0  0
    5.6701   -3.9747   -0.4943 C   0  0  0  0  0  0  0  0  0  0  0  0
    5.7933   -5.1271    0.3323 O   0  0  0  0  0  0  0  0  0  0  0  0
    5.2969   -4.9826    1.6557 C   0  0  0  0  0  0  0  0  0  0  0  0
    3.7633   -5.1711    1.7317 C   0  0  1  0  0  0  0  0  0  0  0  0
    1.4787   -6.5995    4.5177 C   0  0  0  0  0  0  0  0  0  0  0  0
   -0.0088   -6.9775    4.5876 C   0  0  0  0  0  0  0  0  0  0  0  0
   -1.9794   -9.1265    2.9219 H   0  0  0  0  0  0  0  0  0  0  0  0
   -2.4007   -7.5002    3.4777 H   0  0  0  0  0  0  0  0  0  0  0  0
   -1.9867   -8.7609    4.6434 H   0  0  0  0  0  0  0  0  0  0  0  0
   -0.1845   -8.2617    1.5250 H   0  0  0  0  0  0  0  0  0  0  0  0
   -0.5866   -6.6327    1.9999 H   0  0  0  0  0  0  0  0  0  0  0  0
    2.1232   -8.0063    2.3528 H   0  0  0  0  0  0  0  0  0  0  0  0
    1.6865   -6.7693    1.1876 H   0  0  0  0  0  0  0  0  0  0  0  0
    3.8791   -6.6211    3.2780 H   0  0  0  0  0  0  0  0  0  0  0  0
    3.7273   -5.2934    5.2121 H   0  0  0  0  0  0  0  0  0  0  0  0
    4.8136   -4.4683    4.1817 H   0  0  0  0  0  0  0  0  0  0  0  0
    2.6250   -1.7189    3.7909 H   0  0  0  0  0  0  0  0  0  0  0  0
    4.0800   -2.4171    3.1191 H   0  0  0  0  0  0  0  0  0  0  0  0
    1.3005   -3.5482    2.5669 H   0  0  0  0  0  0  0  0  0  0  0  0
    1.8593   -2.1846    1.6631 H   0  0  0  0  0  0  0  0  0  0  0  0
    2.1329   -4.4022    0.5595 H   0  0  0  0  0  0  0  0  0  0  0  0
    3.6892   -4.5760   -1.1065 H   0  0  0  0  0  0  0  0  0  0  0  0
    3.5588   -4.1370   -3.5274 H   0  0  0  0  0  0  0  0  0  0  0  0
    3.7229   -0.2161   -4.8320 H   0  0  0  0  0  0  0  0  0  0  0  0
    4.3911    0.5396   -2.5292 H   0  0  0  0  0  0  0  0  0  0  0  0
    6.1848   -4.2062   -1.4234 H   0  0  0  0  0  0  0  0  0  0  0  0
    6.1773   -3.1034   -0.0726 H   0  0  0  0  0  0  0  0  0  0  0  0
    5.7648   -5.7901    2.2213 H   0  0  0  0  0  0  0  0  0  0  0  0
    5.6373   -4.0502    2.1045 H   0  0  0  0  0  0  0  0  0  0  0  0
    3.6187   -5.9915    1.0323 H   0  0  0  0  0  0  0  0  0  0  0  0
    2.0959   -7.4610    4.7788 H   0  0  0  0  0  0  0  0  0  0  0  0
    1.6342   -5.8428    5.2863 H   0  0  0  0  0  0  0  0  0  0  0  0
   -0.6139   -6.0811    4.4546 H   0  0  0  0  0  0  0  0  0  0  0  0
   -0.2274   -7.3614    5.5840 H   0  0  0  0  0  0  0  0  0  0  0  0
  1  2  1  0
  1 26  1  0
  1 27  1  0
  1 28  1  0
  2 25  1  0
  2  3  1  0
  3  4  1  0
  3 29  1  0
  3 30  1  0
  4  5  1  0
  4 31  1  0
  4 32  1  0
  5  6  1  0
  5 24  1  0
  6 23  1  0
  6  7  1  0
  6 33  1  1
  7  8  1  0
  7 34  1  0
  7 35  1  0
  8  9  1  0
  9 10  1  0
  9 36  1  0
  9 37  1  0
 10 11  1  0
 10 38  1  0
 10 39  1  0
 11 23  1  0
 11 12  1  0
 11 40  1  6
 12 13  1  0
 13 14  1  0
 13 20  1  0
 13 41  1  6
 14 19  1  0
 14 15  2  0
 15 16  1  0
 15 42  1  0
 16 17  2  0
 17 18  1  0
 17 43  1  0
 18 19  2  0
 18 44  1  0
 20 21  1  0
 20 45  1  0
 20 46  1  0
 21 22  1  0
 22 23  1  0
 22 47  1  0
 22 48  1  0
 23 49  1  6
 24 25  1  0
 24 50  1  0
 24 51  1  0
 25 52  1  0
 25 53  1  0
M  END
>  <i_m_ct_stereo_status>  (116) 
1

>  <s_m_source_file>  (116) 
/var/tmp/pbs.5076255.sched01/tmpbrsd6n1o/39u_ie0p0h.sdf

>  <i_m_source_file_index>  (116) 
7

>  <i_lp_mmshare_version>  (116) 
48012

>  <i_f3d_flags>  (116) 
0

>  <s_epik_input>  (116) 
W0NIM11OMVtDSDJdW0NIMl1OKFtDSDJdW0NIMl0xKVtDQEhdKFtDSDJdT1tDSDJdW0NIMl0yKVtDQEBIXShbQ0BASF0yMylbQ0gyXU9bQ0gyXVtDQEBIXShPMyljNFtjSF1uW2NIXVtjSF1uNA==

>  <s_epik_cmdline>  (116) 
J2VwaWtfcHl0aG9uJywgJy1waHQnLCAnMi4wJywgJy1waCcsICc3LjAnLCAnLXRuJywgJzgnLCAnLW1hJywgJzIwMCcsICctaW1hZScsICc8aW5maWxlLm1hZT4nLCAnLW9tYWUnLCAnPG91dGZpbGUubWFlPic=

>  <r_lp_tautomer_probability>  (116) 
1

>  <r_epik_Ionization_Penalty>  (116) 
3.51613

>  <r_epik_Ionization_Penalty_Charging>  (116) 
0

>  <r_epik_Ionization_Penalty_Neutral>  (116) 
3.51613

>  <r_epik_State_Penalty>  (116) 
2.28177

>  <r_epik_Charging_Adjusted_Penalty>  (116) 
2.28177

>  <i_epik_Tot_Q>  (116) 
0

>  <i_epik_Tot_abs_Q>  (116) 
0

>  <s_lp_Force_Field>  (116) 
OPLS3e

>  <r_lp_Energy>  (116) 
54.7916

>  <b_lp_Chiralities_Consistent>  (116) 
1

>  <s_lp_Variant>  (116) 
35:0-3

>  <s_i_glide_gridfile>  (116) 
pfpi4k_grid

>  <i_i_glide_lignum>  (116) 
7

>  <i_i_glide_rotatable_bonds>  (116) 
2

>  <r_i_docking_score>  (116) 
-3.21411

>  <r_i_glide_ligand_efficiency>  (116) 
-0.128565

>  <r_i_glide_ligand_efficiency_sa>  (116) 
-0.375925

>  <r_i_glide_ligand_efficiency_ln>  (116) 
-0.761841

>  <r_i_glide_gscore>  (116) 
-3.21411

>  <r_i_glide_lipo>  (116) 
-0.519482

>  <r_i_glide_hbond>  (116) 
-0.32

>  <r_i_glide_metal>  (116) 
-0

>  <r_i_glide_rewards>  (116) 
-1.03336

>  <r_i_glide_evdw>  (116) 
-25.97

>  <r_i_glide_ecoul>  (116) 
-2.37571

>  <r_i_glide_erotb>  (116) 
0.313591

>  <r_i_glide_esite>  (116) 
0

>  <r_i_glide_emodel>  (116) 
-33.6673

>  <r_i_glide_energy>  (116) 
-28.3458

>  <r_i_glide_einternal>  (116) 
0.0503633

>  <r_i_glide_intrahb_reward>  (116) 
-0

>  <i_i_glide_confnum>  (116) 
1

>  <i_i_glide_posenum>  (116) 
1

>  <r_i_glide_eff_state_penalty>  (116) 
0

>  <ligand_id>  (116) 
35

>  <original_smiles>  (116) 
CN1CCN(C2COCCC3OC(c4cnccn4)COCC32)CC1

>  <smiles>  (116) 
[H]c1nc([H])c(C2([H])OC3([H])C([H])([H])C([H])([H])OC([H])([H])C([H])(N4C([H])([H])C([H])([H])N(C([H])([H])[H])C([H])([H])C4([H])[H])C3([H])C([H])([H])OC2([H])[H])nc1[H]

$$$$
35:2:1
     RDKit          3D

 53 56  0  0  1  0  0  0  0  0999 V2000
   -1.5901    0.9324    6.4982 C   0  0  0  0  0  0  0  0  0  0  0  0
   -0.8598   -0.2702    6.1400 N   0  0  0  0  0  0  0  0  0  0  0  0
   -0.7044   -0.3817    4.6910 C   0  0  0  0  0  0  0  0  0  0  0  0
    0.0888   -1.6399    4.2995 C   0  0  0  0  0  0  0  0  0  0  0  0
    1.4317   -1.6696    4.8957 N   0  0  0  0  0  0  0  0  0  0  0  0
    2.2085   -2.8744    4.5088 C   0  0  2  0  0  0  0  0  0  0  0  0
    3.5972   -2.9825    5.2068 C   0  0  0  0  0  0  0  0  0  0  0  0
    4.4125   -1.8233    5.0912 O   0  0  0  0  0  0  0  0  0  0  0  0
    4.9118   -1.5577    3.7907 C   0  0  0  0  0  0  0  0  0  0  0  0
    3.8354   -0.9053    2.9223 C   0  0  0  0  0  0  0  0  0  0  0  0
    2.9199   -1.8870    2.1683 C   0  0  1  0  0  0  0  0  0  0  0  0
    3.6508   -2.2793    1.0145 O   0  0  0  0  0  0  0  0  0  0  0  0
    2.9201   -2.9697    0.0087 C   0  0  1  0  0  0  0  0  0  0  0  0
    3.3488   -2.5073   -1.3817 C   0  0  0  0  0  0  0  0  0  0  0  0
    2.7854   -3.0569   -2.5604 C   0  0  0  0  0  0  0  0  0  0  0  0
    3.1555   -2.6255   -3.7933 N   0  0  0  0  0  0  0  0  0  0  0  0
    4.0528   -1.6201   -3.8367 C   0  0  0  0  0  0  0  0  0  0  0  0
    4.6008   -1.0621   -2.6624 C   0  0  0  0  0  0  0  0  0  0  0  0
    4.2672   -1.5131   -1.4356 N   0  0  0  0  0  0  0  0  0  0  0  0
    3.2230   -4.4533    0.2439 C   0  0  0  0  0  0  0  0  0  0  0  0
    2.5266   -4.9594    1.3742 O   0  0  0  0  0  0  0  0  0  0  0  0
    2.9724   -4.4641    2.6281 C   0  0  0  0  0  0  0  0  0  0  0  0
    2.3387   -3.0953    2.9697 C   0  0  1  0  0  0  0  0  0  0  0  0
    1.2765   -1.5254    6.3518 C   0  0  0  0  0  0  0  0  0  0  0  0
    0.4747   -0.2675    6.7360 C   0  0  0  0  0  0  0  0  0  0  0  0
   -2.5776    0.9208    6.0411 H   0  0  0  0  0  0  0  0  0  0  0  0
   -1.0734    1.8278    6.1569 H   0  0  0  0  0  0  0  0  0  0  0  0
   -1.7191    1.0001    7.5764 H   0  0  0  0  0  0  0  0  0  0  0  0
   -1.6837   -0.4128    4.2149 H   0  0  0  0  0  0  0  0  0  0  0  0
   -0.1929    0.4971    4.2952 H   0  0  0  0  0  0  0  0  0  0  0  0
   -0.4657   -2.5330    4.5904 H   0  0  0  0  0  0  0  0  0  0  0  0
    0.1537   -1.6309    3.2139 H   0  0  0  0  0  0  0  0  0  0  0  0
    1.6488   -3.7387    4.8694 H   0  0  0  0  0  0  0  0  0  0  0  0
    3.4456   -3.1450    6.2743 H   0  0  0  0  0  0  0  0  0  0  0  0
    4.1592   -3.8620    4.8918 H   0  0  0  0  0  0  0  0  0  0  0  0
    5.7273   -0.8481    3.9187 H   0  0  0  0  0  0  0  0  0  0  0  0
    5.3445   -2.4437    3.3256 H   0  0  0  0  0  0  0  0  0  0  0  0
    3.2566   -0.2200    3.5384 H   0  0  0  0  0  0  0  0  0  0  0  0
    4.3196   -0.2693    2.1804 H   0  0  0  0  0  0  0  0  0  0  0  0
    2.0778   -1.2861    1.8231 H   0  0  0  0  0  0  0  0  0  0  0  0
    1.8499   -2.7833    0.0856 H   0  0  0  0  0  0  0  0  0  0  0  0
    2.0395   -3.8397   -2.5333 H   0  0  0  0  0  0  0  0  0  0  0  0
    4.3479   -1.2579   -4.8116 H   0  0  0  0  0  0  0  0  0  0  0  0
    5.3119   -0.2549   -2.7027 H   0  0  0  0  0  0  0  0  0  0  0  0
    2.8613   -5.0284   -0.6048 H   0  0  0  0  0  0  0  0  0  0  0  0
    4.3012   -4.6230    0.2935 H   0  0  0  0  0  0  0  0  0  0  0  0
    2.6239   -5.1957    3.3595 H   0  0  0  0  0  0  0  0  0  0  0  0
    4.0603   -4.4696    2.6890 H   0  0  0  0  0  0  0  0  0  0  0  0
    1.3253   -3.2383    2.6063 H   0  0  0  0  0  0  0  0  0  0  0  0
    0.7908   -2.4145    6.7578 H   0  0  0  0  0  0  0  0  0  0  0  0
    2.2501   -1.4329    6.8330 H   0  0  0  0  0  0  0  0  0  0  0  0
    1.0308    0.6165    6.4192 H   0  0  0  0  0  0  0  0  0  0  0  0
    0.3973   -0.2174    7.8215 H   0  0  0  0  0  0  0  0  0  0  0  0
  1  2  1  0
  1 26  1  0
  1 27  1  0
  1 28  1  0
  2 25  1  0
  2  3  1  0
  3  4  1  0
  3 29  1  0
  3 30  1  0
  4  5  1  0
  4 31  1  0
  4 32  1  0
  5  6  1  0
  5 24  1  0
  6 23  1  0
  6  7  1  0
  6 33  1  1
  7  8  1  0
  7 34  1  0
  7 35  1  0
  8  9  1  0
  9 10  1  0
  9 36  1  0
  9 37  1  0
 10 11  1  0
 10 38  1  0
 10 39  1  0
 11 23  1  0
 11 12  1  0
 11 40  1  6
 12 13  1  0
 13 14  1  0
 13 20  1  0
 13 41  1  1
 14 19  1  0
 14 15  2  0
 15 16  1  0
 15 42  1  0
 16 17  2  0
 17 18  1  0
 17 43  1  0
 18 19  2  0
 18 44  1  0
 20 21  1  0
 20 45  1  0
 20 46  1  0
 21 22  1  0
 22 23  1  0
 22 47  1  0
 22 48  1  0
 23 49  1  6
 24 25  1  0
 24 50  1  0
 24 51  1  0
 25 52  1  0
 25 53  1  0
M  END
>  <i_m_ct_stereo_status>  (117) 
1

>  <s_m_source_file>  (117) 
/var/tmp/pbs.5076255.sched01/tmpbrsd6n1o/39u_ie0p0h.sdf

>  <i_m_source_file_index>  (117) 
7

>  <i_lp_mmshare_version>  (117) 
48012

>  <i_f3d_flags>  (117) 
0

>  <s_epik_input>  (117) 
W0NIM11OMVtDSDJdW0NIMl1OKFtDSDJdW0NIMl0xKVtDQEhdKFtDSDJdT1tDSDJdW0NIMl0yKVtDQEBIXShbQ0BASF0yMylbQ0gyXU9bQ0gyXVtDQEBIXShPMyljNFtjSF1uW2NIXVtjSF1uNA==

>  <s_epik_cmdline>  (117) 
J2VwaWtfcHl0aG9uJywgJy1waHQnLCAnMi4wJywgJy1waCcsICc3LjAnLCAnLXRuJywgJzgnLCAnLW1hJywgJzIwMCcsICctaW1hZScsICc8aW5maWxlLm1hZT4nLCAnLW9tYWUnLCAnPG91dGZpbGUubWFlPic=

>  <r_lp_tautomer_probability>  (117) 
1

>  <r_epik_Ionization_Penalty>  (117) 
3.51613

>  <r_epik_Ionization_Penalty_Charging>  (117) 
0

>  <r_epik_Ionization_Penalty_Neutral>  (117) 
3.51613

>  <r_epik_State_Penalty>  (117) 
2.28177

>  <r_epik_Charging_Adjusted_Penalty>  (117) 
2.28177

>  <i_epik_Tot_Q>  (117) 
0

>  <i_epik_Tot_abs_Q>  (117) 
0

>  <s_lp_Force_Field>  (117) 
OPLS3e

>  <r_lp_Energy>  (117) 
54.7916

>  <b_lp_Chiralities_Consistent>  (117) 
1

>  <s_lp_Variant>  (117) 
35:0-3

>  <s_i_glide_gridfile>  (117) 
pfpi4k_grid

>  <i_i_glide_lignum>  (117) 
7

>  <i_i_glide_rotatable_bonds>  (117) 
2

>  <r_i_docking_score>  (117) 
-2.6337

>  <r_i_glide_ligand_efficiency>  (117) 
-0.105348

>  <r_i_glide_ligand_efficiency_sa>  (117) 
-0.30804

>  <r_i_glide_ligand_efficiency_ln>  (117) 
-0.624267

>  <r_i_glide_gscore>  (117) 
-2.6337

>  <r_i_glide_lipo>  (117) 
-0.184833

>  <r_i_glide_hbond>  (117) 
-0.00190813

>  <r_i_glide_metal>  (117) 
-0

>  <r_i_glide_rewards>  (117) 
-1.03336

>  <r_i_glide_evdw>  (117) 
-23.5514

>  <r_i_glide_ecoul>  (117) 
-3.66411

>  <r_i_glide_erotb>  (117) 
0.313591

>  <r_i_glide_esite>  (117) 
0

>  <r_i_glide_emodel>  (117) 
-30.7783

>  <r_i_glide_energy>  (117) 
-27.2156

>  <r_i_glide_einternal>  (117) 
1.50288

>  <r_i_glide_intrahb_reward>  (117) 
-0

>  <i_i_glide_confnum>  (117) 
2

>  <i_i_glide_posenum>  (117) 
12

>  <r_i_glide_eff_state_penalty>  (117) 
0

>  <ligand_id>  (117) 
35

>  <original_smiles>  (117) 
CN1CCN(C2COCCC3OC(c4cnccn4)COCC32)CC1

>  <smiles>  (117) 
[H]c1nc([H])c(C2([H])OC3([H])C([H])([H])C([H])([H])OC([H])([H])C([H])(N4C([H])([H])C([H])([H])N(C([H])([H])[H])C([H])([H])C4([H])[H])C3([H])C([H])([H])OC2([H])[H])nc1[H]

$$$$
35:2:2
     RDKit          3D

 53 56  0  0  1  0  0  0  0  0999 V2000
   -1.6104    1.0175    6.5339 C   0  0  0  0  0  0  0  0  0  0  0  0
   -1.0210   -0.2695    6.2028 N   0  0  0  0  0  0  0  0  0  0  0  0
   -0.7749   -0.3825    4.7664 C   0  0  0  0  0  0  0  0  0  0  0  0
   -0.1388   -1.7343    4.4025 C   0  0  0  0  0  0  0  0  0  0  0  0
    1.1368   -1.9635    5.0959 N   0  0  0  0  0  0  0  0  0  0  0  0
    1.7658   -3.2589    4.7392 C   0  0  2  0  0  0  0  0  0  0  0  0
    3.0517   -3.5868    5.5541 C   0  0  0  0  0  0  0  0  0  0  0  0
    4.0296   -2.5555    5.5536 O   0  0  0  0  0  0  0  0  0  0  0  0
    4.6818   -2.3377    4.3138 C   0  0  0  0  0  0  0  0  0  0  0  0
    3.7987   -1.5141    3.3758 C   0  0  0  0  0  0  0  0  0  0  0  0
    2.8275   -2.3329    2.5090 C   0  0  1  0  0  0  0  0  0  0  0  0
    3.5951   -2.7852    1.4014 O   0  0  0  0  0  0  0  0  0  0  0  0
    2.8657   -3.3462    0.3188 C   0  0  1  0  0  0  0  0  0  0  0  0
    3.4812   -2.9278   -1.0116 C   0  0  0  0  0  0  0  0  0  0  0  0
    2.6927   -2.7945   -2.1817 C   0  0  0  0  0  0  0  0  0  0  0  0
    3.2304   -2.3899   -3.3586 N   0  0  0  0  0  0  0  0  0  0  0  0
    4.5523   -2.1272   -3.3580 C   0  0  0  0  0  0  0  0  0  0  0  0
    5.3464   -2.2895   -2.1989 C   0  0  0  0  0  0  0  0  0  0  0  0
    4.8160   -2.6946   -1.0246 N   0  0  0  0  0  0  0  0  0  0  0  0
    2.9340   -4.8656    0.5283 C   0  0  0  0  0  0  0  0  0  0  0  0
    2.0722   -5.2952    1.5698 O   0  0  0  0  0  0  0  0  0  0  0  0
    2.4639   -4.9011    2.8773 C   0  0  0  0  0  0  0  0  0  0  0  0
    2.0063   -3.4622    3.2116 C   0  0  1  0  0  0  0  0  0  0  0  0
    0.8923   -1.8188    6.5398 C   0  0  0  0  0  0  0  0  0  0  0  0
    0.2508   -0.4649    6.8953 C   0  0  0  0  0  0  0  0  0  0  0  0
   -2.5531    1.1523    6.0066 H   0  0  0  0  0  0  0  0  0  0  0  0
   -0.9453    1.8369    6.2587 H   0  0  0  0  0  0  0  0  0  0  0  0
   -1.8101    1.0864    7.6026 H   0  0  0  0  0  0  0  0  0  0  0  0
   -1.7112   -0.2686    4.2205 H   0  0  0  0  0  0  0  0  0  0  0  0
   -0.1180    0.4210    4.4298 H   0  0  0  0  0  0  0  0  0  0  0  0
   -0.8326   -2.5431    4.6317 H   0  0  0  0  0  0  0  0  0  0  0  0
    0.0046   -1.7207    3.3233 H   0  0  0  0  0  0  0  0  0  0  0  0
    1.0568   -4.0395    5.0190 H   0  0  0  0  0  0  0  0  0  0  0  0
    2.7796   -3.7491    6.5975 H   0  0  0  0  0  0  0  0  0  0  0  0
    3.5096   -4.5304    5.2590 H   0  0  0  0  0  0  0  0  0  0  0  0
    5.5709   -1.7552    4.5427 H   0  0  0  0  0  0  0  0  0  0  0  0
    5.0265   -3.2658    3.8570 H   0  0  0  0  0  0  0  0  0  0  0  0
    3.2656   -0.7667    3.9600 H   0  0  0  0  0  0  0  0  0  0  0  0
    4.4391   -0.9384    2.7045 H   0  0  0  0  0  0  0  0  0  0  0  0
    2.1135   -1.6089    2.1158 H   0  0  0  0  0  0  0  0  0  0  0  0
    1.8301   -3.0028    0.3063 H   0  0  0  0  0  0  0  0  0  0  0  0
    1.6295   -2.9815   -2.1827 H   0  0  0  0  0  0  0  0  0  0  0  0
    4.9829   -1.7717   -4.2839 H   0  0  0  0  0  0  0  0  0  0  0  0
    6.4046   -2.0817   -2.2094 H   0  0  0  0  0  0  0  0  0  0  0  0
    2.5736   -5.3592   -0.3668 H   0  0  0  0  0  0  0  0  0  0  0  0
    3.9624   -5.2029    0.6660 H   0  0  0  0  0  0  0  0  0  0  0  0
    1.9470   -5.5890    3.5475 H   0  0  0  0  0  0  0  0  0  0  0  0
    3.5291   -5.0688    3.0372 H   0  0  0  0  0  0  0  0  0  0  0  0
    1.0177   -3.4436    2.7630 H   0  0  0  0  0  0  0  0  0  0  0  0
    0.2569   -2.6346    6.8875 H   0  0  0  0  0  0  0  0  0  0  0  0
    1.8290   -1.8730    7.0950 H   0  0  0  0  0  0  0  0  0  0  0  0
    0.9478    0.3362    6.6433 H   0  0  0  0  0  0  0  0  0  0  0  0
    0.0981   -0.4183    7.9736 H   0  0  0  0  0  0  0  0  0  0  0  0
  1  2  1  0
  1 26  1  0
  1 27  1  0
  1 28  1  0
  2 25  1  0
  2  3  1  0
  3  4  1  0
  3 29  1  0
  3 30  1  0
  4  5  1  0
  4 31  1  0
  4 32  1  0
  5  6  1  0
  5 24  1  0
  6 23  1  0
  6  7  1  0
  6 33  1  1
  7  8  1  0
  7 34  1  0
  7 35  1  0
  8  9  1  0
  9 10  1  0
  9 36  1  0
  9 37  1  0
 10 11  1  0
 10 38  1  0
 10 39  1  0
 11 23  1  0
 11 12  1  0
 11 40  1  6
 12 13  1  0
 13 14  1  0
 13 20  1  0
 13 41  1  6
 14 19  1  0
 14 15  2  0
 15 16  1  0
 15 42  1  0
 16 17  2  0
 17 18  1  0
 17 43  1  0
 18 19  2  0
 18 44  1  0
 20 21  1  0
 20 45  1  0
 20 46  1  0
 21 22  1  0
 22 23  1  0
 22 47  1  0
 22 48  1  0
 23 49  1  6
 24 25  1  0
 24 50  1  0
 24 51  1  0
 25 52  1  0
 25 53  1  0
M  END
>  <i_m_ct_stereo_status>  (118) 
1

>  <s_m_source_file>  (118) 
/var/tmp/pbs.5076255.sched01/tmpbrsd6n1o/39u_ie0p0h.sdf

>  <i_m_source_file_index>  (118) 
7

>  <i_lp_mmshare_version>  (118) 
48012

>  <i_f3d_flags>  (118) 
0

>  <s_epik_input>  (118) 
W0NIM11OMVtDSDJdW0NIMl1OKFtDSDJdW0NIMl0xKVtDQEhdKFtDSDJdT1tDSDJdW0NIMl0yKVtDQEBIXShbQ0BASF0yMylbQ0gyXU9bQ0gyXVtDQEBIXShPMyljNFtjSF1uW2NIXVtjSF1uNA==

>  <s_epik_cmdline>  (118) 
J2VwaWtfcHl0aG9uJywgJy1waHQnLCAnMi4wJywgJy1waCcsICc3LjAnLCAnLXRuJywgJzgnLCAnLW1hJywgJzIwMCcsICctaW1hZScsICc8aW5maWxlLm1hZT4nLCAnLW9tYWUnLCAnPG91dGZpbGUubWFlPic=

>  <r_lp_tautomer_probability>  (118) 
1

>  <r_epik_Ionization_Penalty>  (118) 
3.51613

>  <r_epik_Ionization_Penalty_Charging>  (118) 
0

>  <r_epik_Ionization_Penalty_Neutral>  (118) 
3.51613

>  <r_epik_State_Penalty>  (118) 
2.28177

>  <r_epik_Charging_Adjusted_Penalty>  (118) 
2.28177

>  <i_epik_Tot_Q>  (118) 
0

>  <i_epik_Tot_abs_Q>  (118) 
0

>  <s_lp_Force_Field>  (118) 
OPLS3e

>  <r_lp_Energy>  (118) 
54.7916

>  <b_lp_Chiralities_Consistent>  (118) 
1

>  <s_lp_Variant>  (118) 
35:0-3

>  <s_i_glide_gridfile>  (118) 
pfpi4k_grid

>  <i_i_glide_lignum>  (118) 
7

>  <i_i_glide_rotatable_bonds>  (118) 
2

>  <r_i_docking_score>  (118) 
-2.59383

>  <r_i_glide_ligand_efficiency>  (118) 
-0.103753

>  <r_i_glide_ligand_efficiency_sa>  (118) 
-0.303376

>  <r_i_glide_ligand_efficiency_ln>  (118) 
-0.614816

>  <r_i_glide_gscore>  (118) 
-2.59383

>  <r_i_glide_lipo>  (118) 
-0.141814

>  <r_i_glide_hbond>  (118) 
-0.057267

>  <r_i_glide_metal>  (118) 
-0

>  <r_i_glide_rewards>  (118) 
-1.03336

>  <r_i_glide_evdw>  (118) 
-21.277

>  <r_i_glide_ecoul>  (118) 
-4.07418

>  <r_i_glide_erotb>  (118) 
0.313591

>  <r_i_glide_esite>  (118) 
0

>  <r_i_glide_emodel>  (118) 
-29.5951

>  <r_i_glide_energy>  (118) 
-25.3512

>  <r_i_glide_einternal>  (118) 
0.0873449

>  <r_i_glide_intrahb_reward>  (118) 
-0

>  <i_i_glide_confnum>  (118) 
1

>  <i_i_glide_posenum>  (118) 
36

>  <r_i_glide_eff_state_penalty>  (118) 
0

>  <ligand_id>  (118) 
35

>  <original_smiles>  (118) 
CN1CCN(C2COCCC3OC(c4cnccn4)COCC32)CC1

>  <smiles>  (118) 
[H]c1nc([H])c(C2([H])OC3([H])C([H])([H])C([H])([H])OC([H])([H])C([H])(N4C([H])([H])C([H])([H])N(C([H])([H])[H])C([H])([H])C4([H])[H])C3([H])C([H])([H])OC2([H])[H])nc1[H]

$$$$
36:0:0
     RDKit          3D

 78 86  0  0  1  0  0  0  0  0999 V2000
    4.6642   -0.1104    6.2510 C   0  0  0  0  0  0  0  0  0  0  0  0
    3.7871    0.9621    5.6267 C   0  0  0  0  0  0  0  0  0  0  0  0
    3.5353    2.2758    5.7665 C   0  0  0  0  0  0  0  0  0  0  0  0
    2.3433    2.2011    4.7506 C   0  0  1  0  0  0  0  0  0  0  0  0
    2.1299    3.3399    3.6963 C   0  0  1  0  0  0  0  0  0  0  0  0
    1.7023    2.7538    2.4819 O   0  0  0  0  0  0  0  0  0  0  0  0
    1.0472    4.4001    4.0859 C   0  0  1  0  0  0  0  0  0  0  0  0
   -0.2565    4.0220    3.6906 O   0  0  0  0  0  0  0  0  0  0  0  0
    1.0467    4.5549    5.5801 C   0  0  0  0  0  0  0  0  0  0  0  0
    1.8345    5.3796    6.2633 C   0  0  0  0  0  0  0  0  0  0  0  0
    2.2108    5.0734    7.6570 C   0  0  1  0  0  0  0  0  0  0  0  0
    2.1123    6.1313    8.7236 C   0  0  0  0  0  0  0  0  0  0  0  0
    1.1466    4.9577    8.7569 C   0  0  1  0  0  0  0  0  0  0  0  0
   -0.3165    5.2243    8.4990 C   0  0  0  0  0  0  0  0  0  0  0  0
   -0.7628    6.3767    8.4771 O   0  0  0  0  0  0  0  0  0  0  0  0
   -1.2290    4.0174    8.2914 C   0  0  2  0  0  0  0  0  0  0  0  0
   -2.5631    4.0450    8.9331 C   0  0  1  0  0  0  0  0  0  0  0  0
   -3.3166    2.9602    8.0107 C   0  0  0  0  0  0  0  0  0  0  0  0
   -2.4142    1.7699    7.3977 C   0  0  0  0  0  0  0  0  0  0  0  0
   -1.0104    1.6408    7.9977 N   0  0  0  0  0  0  0  0  0  0  0  0
   -0.8462    2.6820    9.0118 C   0  0  2  0  0  0  0  0  0  0  0  0
   -1.8677    2.2741    9.8689 O   0  0  0  0  0  0  0  0  0  0  0  0
   -2.2085    3.4412   10.3672 C   0  0  2  0  0  0  0  0  0  0  0  0
   -3.3274    3.3662   11.2480 O   0  0  0  0  0  0  0  0  0  0  0  0
   -0.7702    3.6948   11.0437 C   0  0  1  0  0  0  0  0  0  0  0  0
   -0.6943    3.2761   12.3901 O   0  0  0  0  0  0  0  0  0  0  0  0
    0.2154    2.8702   10.0832 C   0  0  1  0  0  0  0  0  0  0  0  0
    0.6482    1.4914   10.6426 C   0  0  0  0  0  0  0  0  0  0  0  0
    1.4347    3.6895    9.5617 C   0  0  1  0  0  0  0  0  0  0  0  0
    2.4110    2.8744    8.6716 C   0  0  0  0  0  0  0  0  0  0  0  0
    3.1997    3.9123    7.8553 C   0  0  1  0  0  0  0  0  0  0  0  0
    4.1315    3.3673    6.6956 C   0  0  0  0  0  0  0  0  0  0  0  0
    5.3564    2.7711    7.4279 C   0  0  0  0  0  0  0  0  0  0  0  0
    4.7525    4.5024    5.8501 C   0  0  0  0  0  0  0  0  0  0  0  0
    2.9907    0.8369    4.3478 C   0  0  2  0  0  0  0  0  0  0  0  0
    2.2406   -0.4611    4.1383 C   0  0  0  0  0  0  0  0  0  0  0  0
    3.2564   -1.2951    3.6110 O   0  0  0  0  0  0  0  0  0  0  0  0
    4.1409   -0.4521    2.9335 C   0  0  0  0  0  0  0  0  0  0  0  0
    3.8290    0.8666    3.2187 O   0  0  0  0  0  0  0  0  0  0  0  0
    4.0000   -0.8671    6.6660 H   0  0  0  0  0  0  0  0  0  0  0  0
    5.3486    0.2180    7.0286 H   0  0  0  0  0  0  0  0  0  0  0  0
    5.2619   -0.6085    5.4913 H   0  0  0  0  0  0  0  0  0  0  0  0
    1.3906    1.9235    5.2097 H   0  0  0  0  0  0  0  0  0  0  0  0
    3.0708    3.8572    3.5009 H   0  0  0  0  0  0  0  0  0  0  0  0
    1.3462    3.4218    1.8996 H   0  0  0  0  0  0  0  0  0  0  0  0
    1.2537    5.3593    3.6060 H   0  0  0  0  0  0  0  0  0  0  0  0
   -0.2876    4.0362    2.7346 H   0  0  0  0  0  0  0  0  0  0  0  0
    0.5599    3.7460    6.1159 H   0  0  0  0  0  0  0  0  0  0  0  0
    2.4255    6.1408    5.7729 H   0  0  0  0  0  0  0  0  0  0  0  0
    2.8789    6.1699    9.5018 H   0  0  0  0  0  0  0  0  0  0  0  0
    1.7252    7.1050    8.4317 H   0  0  0  0  0  0  0  0  0  0  0  0
   -1.2982    3.9128    7.2036 H   0  0  0  0  0  0  0  0  0  0  0  0
   -3.0224    5.0359    8.9973 H   0  0  0  0  0  0  0  0  0  0  0  0
   -4.1630    2.5659    8.5824 H   0  0  0  0  0  0  0  0  0  0  0  0
   -3.7414    3.3918    7.1072 H   0  0  0  0  0  0  0  0  0  0  0  0
   -2.9893    0.8543    7.4934 H   0  0  0  0  0  0  0  0  0  0  0  0
   -2.3111    1.9422    6.3248 H   0  0  0  0  0  0  0  0  0  0  0  0
   -0.6267    0.7322    8.2400 H   0  0  0  0  0  0  0  0  0  0  0  0
   -3.1502    2.7438   11.9677 H   0  0  0  0  0  0  0  0  0  0  0  0
   -0.5609    4.7657   11.0734 H   0  0  0  0  0  0  0  0  0  0  0  0
   -1.4219    2.6837   12.5641 H   0  0  0  0  0  0  0  0  0  0  0  0
    1.3908    1.6155   11.4229 H   0  0  0  0  0  0  0  0  0  0  0  0
    1.0834    0.8566    9.8736 H   0  0  0  0  0  0  0  0  0  0  0  0
   -0.1910    0.9410   11.0690 H   0  0  0  0  0  0  0  0  0  0  0  0
    1.9902    4.0034   10.4461 H   0  0  0  0  0  0  0  0  0  0  0  0
    3.0699    2.2400    9.2685 H   0  0  0  0  0  0  0  0  0  0  0  0
    1.8530    2.2318    7.9818 H   0  0  0  0  0  0  0  0  0  0  0  0
    3.9013    4.3428    8.5666 H   0  0  0  0  0  0  0  0  0  0  0  0
    5.9014    3.5269    7.9895 H   0  0  0  0  0  0  0  0  0  0  0  0
    6.0700    2.3384    6.7312 H   0  0  0  0  0  0  0  0  0  0  0  0
    5.0756    2.0024    8.1437 H   0  0  0  0  0  0  0  0  0  0  0  0
    5.1020    5.3235    6.4812 H   0  0  0  0  0  0  0  0  0  0  0  0
    4.0800    4.9145    5.1061 H   0  0  0  0  0  0  0  0  0  0  0  0
    5.6147    4.1467    5.2842 H   0  0  0  0  0  0  0  0  0  0  0  0
    1.7510   -0.8641    5.0271 H   0  0  0  0  0  0  0  0  0  0  0  0
    1.4925   -0.3255    3.3622 H   0  0  0  0  0  0  0  0  0  0  0  0
    5.1736   -0.6358    3.2375 H   0  0  0  0  0  0  0  0  0  0  0  0
    4.0874   -0.6004    1.8550 H   0  0  0  0  0  0  0  0  0  0  0  0
  1  2  1  0
  1 40  1  0
  1 41  1  0
  1 42  1  0
  2 35  1  0
  2  3  2  0
  3 32  1  0
  3  4  1  0
  4  5  1  0
  4 35  1  0
  4 43  1  1
  5  6  1  0
  5  7  1  0
  5 44  1  6
  6 45  1  0
  7  8  1  0
  7  9  1  0
  7 46  1  6
  8 47  1  0
  9 10  2  3
  9 48  1  0
 10 11  1  0
 10 49  1  0
 11 13  1  0
 11 31  1  0
 11 12  1  1
 13 12  1  1
 12 50  1  0
 12 51  1  0
 13 29  1  0
 13 14  1  0
 14 15  2  0
 14 16  1  0
 16 21  1  0
 16 17  1  0
 16 52  1  6
 17 23  1  0
 17 18  1  0
 17 53  1  1
 18 19  1  0
 18 54  1  0
 18 55  1  0
 19 20  1  0
 19 56  1  0
 19 57  1  0
 21 20  1  6
 20 58  1  0
 21 27  1  0
 21 22  1  0
 22 23  1  0
 23 24  1  1
 23 25  1  0
 24 59  1  0
 25 26  1  0
 25 27  1  0
 25 60  1  1
 26 61  1  0
 27 28  1  1
 27 29  1  0
 28 62  1  0
 28 63  1  0
 28 64  1  0
 29 30  1  0
 29 65  1  1
 30 31  1  0
 30 66  1  0
 30 67  1  0
 31 32  1  0
 31 68  1  1
 32 33  1  0
 32 34  1  0
 33 69  1  0
 33 70  1  0
 33 71  1  0
 34 72  1  0
 34 73  1  0
 34 74  1  0
 35 39  1  6
 35 36  1  0
 36 37  1  0
 36 75  1  0
 36 76  1  0
 37 38  1  0
 38 39  1  0
 38 77  1  0
 38 78  1  0
M  END
>  <i_m_ct_stereo_status>  (119) 
1

>  <s_m_source_file>  (119) 
/var/tmp/pbs.5076255.sched01/tmpbrsd6n1o/39u_ie0p0h.sdf

>  <i_m_source_file_index>  (119) 
8

>  <i_lp_mmshare_version>  (119) 
48012

>  <i_f3d_flags>  (119) 
0

>  <s_epik_input>  (119) 
TzFbQ0gyXU9bQ0gyXVtDQF0xKEM9MltDSDNdKVtDQEhdKFtDQEBIXShbT0hdKVtDQEBIXShbT0hdKS9bQ0hdPVtDSF1cMylDMkMoW0NIM10pKFtDSDNdKVtDQEBIXTRbQ0gyXVtDQEBIXShbQ0BdNShbQ0BdMzQ2KVtDSDJdNilbQ0BdNyhbQ0gzXSlbQ0BAXTg5W0NASF0oQzU9TylbQ0BASF0oW0NIMl1bQ0gyXVtOSF04KVtDQF0oTzkpKFtPSF0pW0NASF03W09IXQ==

>  <s_epik_cmdline>  (119) 
J2VwaWtfcHl0aG9uJywgJy1waHQnLCAnMi4wJywgJy1waCcsICc3LjAnLCAnLXRuJywgJzgnLCAnLW1hJywgJzIwMCcsICctaW1hZScsICc8aW5maWxlLm1hZT4nLCAnLW9tYWUnLCAnPG91dGZpbGUubWFlPic=

>  <r_lp_tautomer_probability>  (119) 
0.99995

>  <r_epik_Ionization_Penalty>  (119) 
0.136145

>  <r_epik_Ionization_Penalty_Charging>  (119) 
0

>  <r_epik_Ionization_Penalty_Neutral>  (119) 
0.136145

>  <r_epik_State_Penalty>  (119) 
0.125491

>  <r_epik_Charging_Adjusted_Penalty>  (119) 
0.125491

>  <i_epik_Tot_Q>  (119) 
0

>  <i_epik_Tot_abs_Q>  (119) 
0

>  <s_epik_Chemistry_Notes>  (119) 
This compound contains an acetal/aminal-like group ( X-CH(R)-Y where X, Y are N, S, or O) that may be acid/base labile, releasing an aldehyde.

>  <s_lp_Force_Field>  (119) 
OPLS3e

>  <r_lp_Energy>  (119) 
125.014

>  <b_lp_Chiralities_Consistent>  (119) 
1

>  <s_lp_Variant>  (119) 
36:0-1

>  <s_i_glide_gridfile>  (119) 
pfpi4k_grid

>  <i_i_glide_lignum>  (119) 
8

>  <i_i_glide_rotatable_bonds>  (119) 
4

>  <r_i_docking_score>  (119) 
-3.24482

>  <r_i_glide_ligand_efficiency>  (119) 
-0.0832006

>  <r_i_glide_ligand_efficiency_sa>  (119) 
-0.282151

>  <r_i_glide_ligand_efficiency_ln>  (119) 
-0.695782

>  <r_i_glide_gscore>  (119) 
-3.24482

>  <r_i_glide_lipo>  (119) 
-0.0955063

>  <r_i_glide_hbond>  (119) 
0

>  <r_i_glide_metal>  (119) 
-0

>  <r_i_glide_rewards>  (119) 
-0.0565795

>  <r_i_glide_evdw>  (119) 
-20.0263

>  <r_i_glide_ecoul>  (119) 
-13.4804

>  <r_i_glide_erotb>  (119) 
0

>  <r_i_glide_esite>  (119) 
-0.0693621

>  <r_i_glide_emodel>  (119) 
-39.379

>  <r_i_glide_energy>  (119) 
-33.5067

>  <r_i_glide_einternal>  (119) 
2.60724

>  <r_i_glide_intrahb_reward>  (119) 
-0

>  <i_i_glide_confnum>  (119) 
5

>  <i_i_glide_posenum>  (119) 
14

>  <r_i_glide_eff_state_penalty>  (119) 
0

>  <ligand_id>  (119) 
36

>  <original_smiles>  (119) 
CC1=C2C(C(O)C(O)C=CC34CC35C(=O)C3C6CCNC37OC6(O)C(O)C7(C)C5CC4C2(C)C)C12COCO2

>  <smiles>  (119) 
[H]OC1([H])C([H])=C([H])C23C([H])([H])C24C(=O)C2([H])C56OC(O[H])(C([H])(O[H])C5(C([H])([H])[H])C4([H])C([H])([H])C3([H])C(C([H])([H])[H])(C([H])([H])[H])C3=C(C([H])([H])[H])C4(OC([H])([H])OC4([H])[H])C3([H])C1([H])O[H])C2([H])C([H])([H])C([H])([H])N6[H]

$$$$
36:0:1
     RDKit          3D

 78 86  0  0  1  0  0  0  0  0999 V2000
   -0.4735   -6.2479    5.1657 C   0  0  0  0  0  0  0  0  0  0  0  0
    0.6090   -6.9284    4.3447 C   0  0  0  0  0  0  0  0  0  0  0  0
    1.9241   -7.1390    4.4080 C   0  0  0  0  0  0  0  0  0  0  0  0
    1.9427   -7.7359    2.9512 C   0  0  1  0  0  0  0  0  0  0  0  0
    2.7876   -9.0070    2.6305 C   0  0  1  0  0  0  0  0  0  0  0  0
    2.0770   -9.8556    1.7776 O   0  0  0  0  0  0  0  0  0  0  0  0
    4.1674   -8.7500    1.9538 C   0  0  1  0  0  0  0  0  0  0  0  0
    4.1608   -8.7443    0.5466 O   0  0  0  0  0  0  0  0  0  0  0  0
    4.6612   -7.4253    2.4089 C   0  0  0  0  0  0  0  0  0  0  0  0
    5.3761   -7.2714    3.5301 C   0  0  0  0  0  0  0  0  0  0  0  0
    5.3219   -5.9940    4.2461 C   0  0  1  0  0  0  0  0  0  0  0  0
    6.5920   -5.3318    4.6676 C   0  0  0  0  0  0  0  0  0  0  0  0
    5.7586   -4.6971    3.5572 C   0  0  1  0  0  0  0  0  0  0  0  0
    6.3069   -4.6885    2.1355 C   0  0  0  0  0  0  0  0  0  0  0  0
    7.4367   -5.1113    1.8674 O   0  0  0  0  0  0  0  0  0  0  0  0
    5.3832   -4.2083    1.0240 C   0  0  2  0  0  0  0  0  0  0  0  0
    5.9669   -3.2904    0.0170 C   0  0  1  0  0  0  0  0  0  0  0  0
    4.9540   -3.5948   -1.1795 C   0  0  0  0  0  0  0  0  0  0  0  0
    3.4177   -3.9400   -0.7253 C   0  0  0  0  0  0  0  0  0  0  0  0
    3.0580   -3.7364    0.7436 N   0  0  0  0  0  0  0  0  0  0  0  0
    4.2391   -3.2052    1.3870 C   0  0  2  0  0  0  0  0  0  0  0  0
    4.3571   -2.0247    0.6491 O   0  0  0  0  0  0  0  0  0  0  0  0
    5.6589   -1.8926    0.7005 C   0  0  2  0  0  0  0  0  0  0  0  0
    6.1262   -0.7762   -0.0368 O   0  0  0  0  0  0  0  0  0  0  0  0
    5.6610   -1.6915    2.2724 C   0  0  1  0  0  0  0  0  0  0  0  0
    5.5463   -0.3346    2.6556 O   0  0  0  0  0  0  0  0  0  0  0  0
    4.4113   -2.5676    2.7464 C   0  0  1  0  0  0  0  0  0  0  0  0
    3.1597   -1.7250    3.0992 C   0  0  0  0  0  0  0  0  0  0  0  0
    4.7244   -3.6111    3.8665 C   0  0  1  0  0  0  0  0  0  0  0  0
    3.4878   -4.4029    4.3618 C   0  0  0  0  0  0  0  0  0  0  0  0
    4.0426   -5.6747    5.0342 C   0  0  1  0  0  0  0  0  0  0  0  0
    3.0063   -6.7898    5.4471 C   0  0  0  0  0  0  0  0  0  0  0  0
    2.3147   -6.2353    6.7083 C   0  0  0  0  0  0  0  0  0  0  0  0
    3.6837   -8.0822    5.9564 C   0  0  0  0  0  0  0  0  0  0  0  0
    0.4059   -7.8531    3.1724 C   0  0  2  0  0  0  0  0  0  0  0  0
   -0.6476   -7.4476    2.1690 C   0  0  0  0  0  0  0  0  0  0  0  0
   -1.8229   -7.8782    2.8195 O   0  0  0  0  0  0  0  0  0  0  0  0
   -1.4453   -9.0084    3.5451 C   0  0  0  0  0  0  0  0  0  0  0  0
   -0.0605   -9.1209    3.5691 O   0  0  0  0  0  0  0  0  0  0  0  0
   -0.8493   -5.4490    4.5325 H   0  0  0  0  0  0  0  0  0  0  0  0
   -0.1713   -5.8272    6.1226 H   0  0  0  0  0  0  0  0  0  0  0  0
   -1.2980   -6.9382    5.3085 H   0  0  0  0  0  0  0  0  0  0  0  0
    2.0215   -6.9921    2.1562 H   0  0  0  0  0  0  0  0  0  0  0  0
    2.9439   -9.5687    3.5408 H   0  0  0  0  0  0  0  0  0  0  0  0
    1.2819  -10.0602    2.2471 H   0  0  0  0  0  0  0  0  0  0  0  0
    4.8715   -9.5392    2.2069 H   0  0  0  0  0  0  0  0  0  0  0  0
    3.8156   -9.5871    0.2752 H   0  0  0  0  0  0  0  0  0  0  0  0
    4.1564   -6.5617    1.9882 H   0  0  0  0  0  0  0  0  0  0  0  0
    5.8125   -8.0983    4.0676 H   0  0  0  0  0  0  0  0  0  0  0  0
    6.6210   -4.8172    5.6330 H   0  0  0  0  0  0  0  0  0  0  0  0
    7.5396   -5.8101    4.4013 H   0  0  0  0  0  0  0  0  0  0  0  0
    5.0107   -5.1348    0.5728 H   0  0  0  0  0  0  0  0  0  0  0  0
    7.0339   -3.4399   -0.1927 H   0  0  0  0  0  0  0  0  0  0  0  0
    4.9449   -2.7384   -1.8562 H   0  0  0  0  0  0  0  0  0  0  0  0
    5.3403   -4.4434   -1.7597 H   0  0  0  0  0  0  0  0  0  0  0  0
    2.7081   -3.4272   -1.3825 H   0  0  0  0  0  0  0  0  0  0  0  0
    3.2923   -5.0190   -0.8320 H   0  0  0  0  0  0  0  0  0  0  0  0
    2.1875   -3.2848    0.9857 H   0  0  0  0  0  0  0  0  0  0  0  0
    5.7924   -0.0019    0.3800 H   0  0  0  0  0  0  0  0  0  0  0  0
    6.6185   -2.0645    2.6328 H   0  0  0  0  0  0  0  0  0  0  0  0
    4.6757   -0.0626    2.4071 H   0  0  0  0  0  0  0  0  0  0  0  0
    3.2713   -1.2309    4.0615 H   0  0  0  0  0  0  0  0  0  0  0  0
    2.2626   -2.3391    3.1498 H   0  0  0  0  0  0  0  0  0  0  0  0
    2.9586   -0.9589    2.3503 H   0  0  0  0  0  0  0  0  0  0  0  0
    5.1233   -3.0510    4.7191 H   0  0  0  0  0  0  0  0  0  0  0  0
    2.8831   -3.8085    5.0497 H   0  0  0  0  0  0  0  0  0  0  0  0
    2.8655   -4.6859    3.5079 H   0  0  0  0  0  0  0  0  0  0  0  0
    4.4398   -5.3304    5.9869 H   0  0  0  0  0  0  0  0  0  0  0  0
    3.0235   -6.0988    7.5185 H   0  0  0  0  0  0  0  0  0  0  0  0
    1.5552   -6.9220    7.0698 H   0  0  0  0  0  0  0  0  0  0  0  0
    1.8536   -5.2696    6.5255 H   0  0  0  0  0  0  0  0  0  0  0  0
    4.5147   -7.8524    6.6245 H   0  0  0  0  0  0  0  0  0  0  0  0
    4.0700   -8.7243    5.1716 H   0  0  0  0  0  0  0  0  0  0  0  0
    2.9776   -8.7051    6.5066 H   0  0  0  0  0  0  0  0  0  0  0  0
   -0.6705   -6.3903    1.9081 H   0  0  0  0  0  0  0  0  0  0  0  0
   -0.5450   -8.0356    1.2635 H   0  0  0  0  0  0  0  0  0  0  0  0
   -1.8064   -8.9410    4.5762 H   0  0  0  0  0  0  0  0  0  0  0  0
   -1.8702   -9.9097    3.1061 H   0  0  0  0  0  0  0  0  0  0  0  0
  1  2  1  0
  1 40  1  0
  1 41  1  0
  1 42  1  0
  2 35  1  0
  2  3  2  0
  3 32  1  0
  3  4  1  0
  4  5  1  0
  4 35  1  0
  4 43  1  6
  5  6  1  0
  5  7  1  0
  5 44  1  1
  6 45  1  0
  7  8  1  0
  7  9  1  0
  7 46  1  6
  8 47  1  0
  9 10  2  3
  9 48  1  0
 10 11  1  0
 10 49  1  0
 11 13  1  0
 11 31  1  0
 11 12  1  1
 13 12  1  1
 12 50  1  0
 12 51  1  0
 13 29  1  0
 13 14  1  0
 14 15  2  0
 14 16  1  0
 16 21  1  0
 16 17  1  0
 16 52  1  6
 17 23  1  0
 17 18  1  0
 17 53  1  6
 18 19  1  0
 18 54  1  0
 18 55  1  0
 19 20  1  0
 19 56  1  0
 19 57  1  0
 21 20  1  1
 20 58  1  0
 21 27  1  0
 21 22  1  0
 22 23  1  0
 23 24  1  6
 23 25  1  0
 24 59  1  0
 25 26  1  0
 25 27  1  0
 25 60  1  1
 26 61  1  0
 27 28  1  1
 27 29  1  0
 28 62  1  0
 28 63  1  0
 28 64  1  0
 29 30  1  0
 29 65  1  1
 30 31  1  0
 30 66  1  0
 30 67  1  0
 31 32  1  0
 31 68  1  1
 32 33  1  0
 32 34  1  0
 33 69  1  0
 33 70  1  0
 33 71  1  0
 34 72  1  0
 34 73  1  0
 34 74  1  0
 35 39  1  1
 35 36  1  0
 36 37  1  0
 36 75  1  0
 36 76  1  0
 37 38  1  0
 38 39  1  0
 38 77  1  0
 38 78  1  0
M  END
>  <i_m_ct_stereo_status>  (120) 
1

>  <s_m_source_file>  (120) 
/var/tmp/pbs.5076255.sched01/tmpbrsd6n1o/39u_ie0p0h.sdf

>  <i_m_source_file_index>  (120) 
8

>  <i_lp_mmshare_version>  (120) 
48012

>  <i_f3d_flags>  (120) 
0

>  <s_epik_input>  (120) 
TzFbQ0gyXU9bQ0gyXVtDQF0xKEM9MltDSDNdKVtDQEhdKFtDQEBIXShbT0hdKVtDQEBIXShbT0hdKS9bQ0hdPVtDSF1cMylDMkMoW0NIM10pKFtDSDNdKVtDQEBIXTRbQ0gyXVtDQEBIXShbQ0BdNShbQ0BdMzQ2KVtDSDJdNilbQ0BdNyhbQ0gzXSlbQ0BAXTg5W0NASF0oQzU9TylbQ0BASF0oW0NIMl1bQ0gyXVtOSF04KVtDQF0oTzkpKFtPSF0pW0NASF03W09IXQ==

>  <s_epik_cmdline>  (120) 
J2VwaWtfcHl0aG9uJywgJy1waHQnLCAnMi4wJywgJy1waCcsICc3LjAnLCAnLXRuJywgJzgnLCAnLW1hJywgJzIwMCcsICctaW1hZScsICc8aW5maWxlLm1hZT4nLCAnLW9tYWUnLCAnPG91dGZpbGUubWFlPic=

>  <r_lp_tautomer_probability>  (120) 
0.99995

>  <r_epik_Ionization_Penalty>  (120) 
0.136145

>  <r_epik_Ionization_Penalty_Charging>  (120) 
0

>  <r_epik_Ionization_Penalty_Neutral>  (120) 
0.136145

>  <r_epik_State_Penalty>  (120) 
0.125491

>  <r_epik_Charging_Adjusted_Penalty>  (120) 
0.125491

>  <i_epik_Tot_Q>  (120) 
0

>  <i_epik_Tot_abs_Q>  (120) 
0

>  <s_epik_Chemistry_Notes>  (120) 
This compound contains an acetal/aminal-like group ( X-CH(R)-Y where X, Y are N, S, or O) that may be acid/base labile, releasing an aldehyde.

>  <s_lp_Force_Field>  (120) 
OPLS3e

>  <r_lp_Energy>  (120) 
125.014

>  <b_lp_Chiralities_Consistent>  (120) 
1

>  <s_lp_Variant>  (120) 
36:0-1

>  <s_i_glide_gridfile>  (120) 
pfpi4k_grid

>  <i_i_glide_lignum>  (120) 
8

>  <i_i_glide_rotatable_bonds>  (120) 
4

>  <r_i_docking_score>  (120) 
-2.98365

>  <r_i_glide_ligand_efficiency>  (120) 
-0.0765038

>  <r_i_glide_ligand_efficiency_sa>  (120) 
-0.259441

>  <r_i_glide_ligand_efficiency_ln>  (120) 
-0.639779

>  <r_i_glide_gscore>  (120) 
-2.98365

>  <r_i_glide_lipo>  (120) 
-0.299104

>  <r_i_glide_hbond>  (120) 
0

>  <r_i_glide_metal>  (120) 
-0

>  <r_i_glide_rewards>  (120) 
-0.678573

>  <r_i_glide_evdw>  (120) 
-25.6372

>  <r_i_glide_ecoul>  (120) 
-4.16267

>  <r_i_glide_erotb>  (120) 
0

>  <r_i_glide_esite>  (120) 
-0.0997125

>  <r_i_glide_emodel>  (120) 
-40.9097

>  <r_i_glide_energy>  (120) 
-29.7999

>  <r_i_glide_einternal>  (120) 
0.944449

>  <r_i_glide_intrahb_reward>  (120) 
-0.5

>  <i_i_glide_confnum>  (120) 
5

>  <i_i_glide_posenum>  (120) 
21

>  <r_i_glide_eff_state_penalty>  (120) 
0

>  <ligand_id>  (120) 
36

>  <original_smiles>  (120) 
CC1=C2C(C(O)C(O)C=CC34CC35C(=O)C3C6CCNC37OC6(O)C(O)C7(C)C5CC4C2(C)C)C12COCO2

>  <smiles>  (120) 
[H]OC1([H])C([H])=C([H])C23C([H])([H])C24C(=O)C2([H])C56OC(O[H])(C([H])(O[H])C5(C([H])([H])[H])C4([H])C([H])([H])C3([H])C(C([H])([H])[H])(C([H])([H])[H])C3=C(C([H])([H])[H])C4(OC([H])([H])OC4([H])[H])C3([H])C1([H])O[H])C2([H])C([H])([H])C([H])([H])N6[H]

$$$$
36:0:2
     RDKit          3D

 78 86  0  0  1  0  0  0  0  0999 V2000
   -0.4848   -6.2354    5.1620 C   0  0  0  0  0  0  0  0  0  0  0  0
    0.6025   -6.9200    4.3489 C   0  0  0  0  0  0  0  0  0  0  0  0
    1.9222   -7.1291    4.4072 C   0  0  0  0  0  0  0  0  0  0  0  0
    1.9339   -7.7266    2.9574 C   0  0  1  0  0  0  0  0  0  0  0  0
    2.7800   -8.9959    2.6380 C   0  0  1  0  0  0  0  0  0  0  0  0
    2.0542   -9.8390    1.7897 O   0  0  0  0  0  0  0  0  0  0  0  0
    4.1574   -8.7303    1.9526 C   0  0  1  0  0  0  0  0  0  0  0  0
    4.1319   -8.6476    0.5498 O   0  0  0  0  0  0  0  0  0  0  0  0
    4.6582   -7.4135    2.4275 C   0  0  0  0  0  0  0  0  0  0  0  0
    5.3797   -7.2590    3.5318 C   0  0  0  0  0  0  0  0  0  0  0  0
    5.3242   -5.9797    4.2384 C   0  0  1  0  0  0  0  0  0  0  0  0
    6.6053   -5.3178    4.6670 C   0  0  0  0  0  0  0  0  0  0  0  0
    5.7680   -4.6820    3.5513 C   0  0  1  0  0  0  0  0  0  0  0  0
    6.3153   -4.6734    2.1346 C   0  0  0  0  0  0  0  0  0  0  0  0
    7.4508   -5.0814    1.8633 O   0  0  0  0  0  0  0  0  0  0  0  0
    5.3892   -4.2027    1.0187 C   0  0  2  0  0  0  0  0  0  0  0  0
    5.9627   -3.2877    0.0023 C   0  0  1  0  0  0  0  0  0  0  0  0
    4.9479   -3.5993   -1.1903 C   0  0  0  0  0  0  0  0  0  0  0  0
    3.4188   -3.9547   -0.7343 C   0  0  0  0  0  0  0  0  0  0  0  0
    3.0627   -3.7409    0.7324 N   0  0  0  0  0  0  0  0  0  0  0  0
    4.2407   -3.2041    1.3770 C   0  0  2  0  0  0  0  0  0  0  0  0
    4.3572   -2.0296    0.6318 O   0  0  0  0  0  0  0  0  0  0  0  0
    5.6566   -1.8896    0.6836 C   0  0  2  0  0  0  0  0  0  0  0  0
    6.1241   -0.7793   -0.0607 O   0  0  0  0  0  0  0  0  0  0  0  0
    5.6538   -1.6826    2.2543 C   0  0  1  0  0  0  0  0  0  0  0  0
    5.5520   -0.3296    2.6401 O   0  0  0  0  0  0  0  0  0  0  0  0
    4.4107   -2.5557    2.7326 C   0  0  1  0  0  0  0  0  0  0  0  0
    3.1585   -1.7142    3.0850 C   0  0  0  0  0  0  0  0  0  0  0  0
    4.7275   -3.6041    3.8569 C   0  0  1  0  0  0  0  0  0  0  0  0
    3.4881   -4.3906    4.3557 C   0  0  0  0  0  0  0  0  0  0  0  0
    4.0481   -5.6591    5.0280 C   0  0  1  0  0  0  0  0  0  0  0  0
    3.0064   -6.7754    5.4465 C   0  0  0  0  0  0  0  0  0  0  0  0
    2.3149   -6.2163    6.7055 C   0  0  0  0  0  0  0  0  0  0  0  0
    3.6833   -8.0665    5.9569 C   0  0  0  0  0  0  0  0  0  0  0  0
    0.4016   -7.8480    3.1786 C   0  0  2  0  0  0  0  0  0  0  0  0
   -0.6528   -7.4438    2.1749 C   0  0  0  0  0  0  0  0  0  0  0  0
   -1.8272   -7.8641    2.8300 O   0  0  0  0  0  0  0  0  0  0  0  0
   -1.4536   -8.9910    3.5631 C   0  0  0  0  0  0  0  0  0  0  0  0
   -0.0697   -9.1092    3.5883 O   0  0  0  0  0  0  0  0  0  0  0  0
   -0.8690   -5.4456    4.5287 H   0  0  0  0  0  0  0  0  0  0  0  0
   -0.1739   -5.8132    6.1120 H   0  0  0  0  0  0  0  0  0  0  0  0
   -1.3011   -6.9318    5.3335 H   0  0  0  0  0  0  0  0  0  0  0  0
    2.0225   -6.9844    2.1605 H   0  0  0  0  0  0  0  0  0  0  0  0
    2.9441   -9.5620    3.5490 H   0  0  0  0  0  0  0  0  0  0  0  0
    1.3147  -10.1460    2.2964 H   0  0  0  0  0  0  0  0  0  0  0  0
    4.8590   -9.5361    2.1792 H   0  0  0  0  0  0  0  0  0  0  0  0
    3.4191   -8.0756    0.2992 H   0  0  0  0  0  0  0  0  0  0  0  0
    4.1643   -6.5479    2.0002 H   0  0  0  0  0  0  0  0  0  0  0  0
    5.8122   -8.0973    4.0607 H   0  0  0  0  0  0  0  0  0  0  0  0
    6.6272   -4.7995    5.6231 H   0  0  0  0  0  0  0  0  0  0  0  0
    7.5414   -5.7929    4.3979 H   0  0  0  0  0  0  0  0  0  0  0  0
    5.0218   -5.1336    0.5704 H   0  0  0  0  0  0  0  0  0  0  0  0
    7.0287   -3.4309   -0.2131 H   0  0  0  0  0  0  0  0  0  0  0  0
    4.9338   -2.7458   -1.8698 H   0  0  0  0  0  0  0  0  0  0  0  0
    5.3371   -4.4433   -1.7704 H   0  0  0  0  0  0  0  0  0  0  0  0
    2.7092   -3.4365   -1.3809 H   0  0  0  0  0  0  0  0  0  0  0  0
    3.2885   -5.0280   -0.8469 H   0  0  0  0  0  0  0  0  0  0  0  0
    2.1964   -3.2723    0.9601 H   0  0  0  0  0  0  0  0  0  0  0  0
    5.7523   -0.0023    0.3247 H   0  0  0  0  0  0  0  0  0  0  0  0
    6.5962   -2.0573    2.6238 H   0  0  0  0  0  0  0  0  0  0  0  0
    4.6922   -0.0382    2.3671 H   0  0  0  0  0  0  0  0  0  0  0  0
    3.2720   -1.2180    4.0465 H   0  0  0  0  0  0  0  0  0  0  0  0
    2.2610   -2.3265    3.1377 H   0  0  0  0  0  0  0  0  0  0  0  0
    2.9591   -0.9489    2.3373 H   0  0  0  0  0  0  0  0  0  0  0  0
    5.1202   -3.0371    4.7083 H   0  0  0  0  0  0  0  0  0  0  0  0
    2.8871   -3.7976    5.0409 H   0  0  0  0  0  0  0  0  0  0  0  0
    2.8651   -4.6755    3.5052 H   0  0  0  0  0  0  0  0  0  0  0  0
    4.4429   -5.3128    5.9825 H   0  0  0  0  0  0  0  0  0  0  0  0
    3.0216   -6.0774    7.5191 H   0  0  0  0  0  0  0  0  0  0  0  0
    1.5538   -6.9008    7.0711 H   0  0  0  0  0  0  0  0  0  0  0  0
    1.8527   -5.2500    6.5233 H   0  0  0  0  0  0  0  0  0  0  0  0
    4.5150   -7.8360    6.6236 H   0  0  0  0  0  0  0  0  0  0  0  0
    4.0668   -8.7084    5.1715 H   0  0  0  0  0  0  0  0  0  0  0  0
    2.9761   -8.6869    6.5085 H   0  0  0  0  0  0  0  0  0  0  0  0
   -0.6703   -6.3846    1.9171 H   0  0  0  0  0  0  0  0  0  0  0  0
   -0.5553   -8.0276    1.2661 H   0  0  0  0  0  0  0  0  0  0  0  0
   -1.8177   -8.9178    4.5921 H   0  0  0  0  0  0  0  0  0  0  0  0
   -1.8836   -9.8899    3.1275 H   0  0  0  0  0  0  0  0  0  0  0  0
  1  2  1  0
  1 40  1  0
  1 41  1  0
  1 42  1  0
  2 35  1  0
  2  3  2  0
  3 32  1  0
  3  4  1  0
  4  5  1  0
  4 35  1  0
  4 43  1  6
  5  6  1  0
  5  7  1  0
  5 44  1  1
  6 45  1  0
  7  8  1  0
  7  9  1  0
  7 46  1  6
  8 47  1  0
  9 10  2  3
  9 48  1  0
 10 11  1  0
 10 49  1  0
 11 13  1  0
 11 31  1  0
 11 12  1  1
 13 12  1  1
 12 50  1  0
 12 51  1  0
 13 29  1  0
 13 14  1  0
 14 15  2  0
 14 16  1  0
 16 21  1  0
 16 17  1  0
 16 52  1  6
 17 23  1  0
 17 18  1  0
 17 53  1  6
 18 19  1  0
 18 54  1  0
 18 55  1  0
 19 20  1  0
 19 56  1  0
 19 57  1  0
 21 20  1  1
 20 58  1  0
 21 27  1  0
 21 22  1  0
 22 23  1  0
 23 24  1  6
 23 25  1  0
 24 59  1  0
 25 26  1  0
 25 27  1  0
 25 60  1  1
 26 61  1  0
 27 28  1  1
 27 29  1  0
 28 62  1  0
 28 63  1  0
 28 64  1  0
 29 30  1  0
 29 65  1  1
 30 31  1  0
 30 66  1  0
 30 67  1  0
 31 32  1  0
 31 68  1  1
 32 33  1  0
 32 34  1  0
 33 69  1  0
 33 70  1  0
 33 71  1  0
 34 72  1  0
 34 73  1  0
 34 74  1  0
 35 39  1  1
 35 36  1  0
 36 37  1  0
 36 75  1  0
 36 76  1  0
 37 38  1  0
 38 39  1  0
 38 77  1  0
 38 78  1  0
M  END
>  <i_m_ct_stereo_status>  (121) 
1

>  <s_m_source_file>  (121) 
/var/tmp/pbs.5076255.sched01/tmpbrsd6n1o/39u_ie0p0h.sdf

>  <i_m_source_file_index>  (121) 
8

>  <i_lp_mmshare_version>  (121) 
48012

>  <i_f3d_flags>  (121) 
0

>  <s_epik_input>  (121) 
TzFbQ0gyXU9bQ0gyXVtDQF0xKEM9MltDSDNdKVtDQEhdKFtDQEBIXShbT0hdKVtDQEBIXShbT0hdKS9bQ0hdPVtDSF1cMylDMkMoW0NIM10pKFtDSDNdKVtDQEBIXTRbQ0gyXVtDQEBIXShbQ0BdNShbQ0BdMzQ2KVtDSDJdNilbQ0BdNyhbQ0gzXSlbQ0BAXTg5W0NASF0oQzU9TylbQ0BASF0oW0NIMl1bQ0gyXVtOSF04KVtDQF0oTzkpKFtPSF0pW0NASF03W09IXQ==

>  <s_epik_cmdline>  (121) 
J2VwaWtfcHl0aG9uJywgJy1waHQnLCAnMi4wJywgJy1waCcsICc3LjAnLCAnLXRuJywgJzgnLCAnLW1hJywgJzIwMCcsICctaW1hZScsICc8aW5maWxlLm1hZT4nLCAnLW9tYWUnLCAnPG91dGZpbGUubWFlPic=

>  <r_lp_tautomer_probability>  (121) 
0.99995

>  <r_epik_Ionization_Penalty>  (121) 
0.136145

>  <r_epik_Ionization_Penalty_Charging>  (121) 
0

>  <r_epik_Ionization_Penalty_Neutral>  (121) 
0.136145

>  <r_epik_State_Penalty>  (121) 
0.125491

>  <r_epik_Charging_Adjusted_Penalty>  (121) 
0.125491

>  <i_epik_Tot_Q>  (121) 
0

>  <i_epik_Tot_abs_Q>  (121) 
0

>  <s_epik_Chemistry_Notes>  (121) 
This compound contains an acetal/aminal-like group ( X-CH(R)-Y where X, Y are N, S, or O) that may be acid/base labile, releasing an aldehyde.

>  <s_lp_Force_Field>  (121) 
OPLS3e

>  <r_lp_Energy>  (121) 
125.014

>  <b_lp_Chiralities_Consistent>  (121) 
1

>  <s_lp_Variant>  (121) 
36:0-1

>  <s_i_glide_gridfile>  (121) 
pfpi4k_grid

>  <i_i_glide_lignum>  (121) 
8

>  <i_i_glide_rotatable_bonds>  (121) 
4

>  <r_i_docking_score>  (121) 
-2.8279

>  <r_i_glide_ligand_efficiency>  (121) 
-0.0725103

>  <r_i_glide_ligand_efficiency_sa>  (121) 
-0.245898

>  <r_i_glide_ligand_efficiency_ln>  (121) 
-0.606382

>  <r_i_glide_gscore>  (121) 
-2.8279

>  <r_i_glide_lipo>  (121) 
-0.299507

>  <r_i_glide_hbond>  (121) 
0

>  <r_i_glide_metal>  (121) 
-0

>  <r_i_glide_rewards>  (121) 
-0.677188

>  <r_i_glide_evdw>  (121) 
-24.7572

>  <r_i_glide_ecoul>  (121) 
-3.42743

>  <r_i_glide_erotb>  (121) 
0

>  <r_i_glide_esite>  (121) 
-0.0992322

>  <r_i_glide_emodel>  (121) 
-39.1193

>  <r_i_glide_energy>  (121) 
-28.1846

>  <r_i_glide_einternal>  (121) 
0.551353

>  <r_i_glide_intrahb_reward>  (121) 
-0.5

>  <i_i_glide_confnum>  (121) 
5

>  <i_i_glide_posenum>  (121) 
28

>  <r_i_glide_eff_state_penalty>  (121) 
0

>  <ligand_id>  (121) 
36

>  <original_smiles>  (121) 
CC1=C2C(C(O)C(O)C=CC34CC35C(=O)C3C6CCNC37OC6(O)C(O)C7(C)C5CC4C2(C)C)C12COCO2

>  <smiles>  (121) 
[H]OC1([H])C([H])=C([H])C23C([H])([H])C24C(=O)C2([H])C56OC(O[H])(C([H])(O[H])C5(C([H])([H])[H])C4([H])C([H])([H])C3([H])C(C([H])([H])[H])(C([H])([H])[H])C3=C(C([H])([H])[H])C4(OC([H])([H])OC4([H])[H])C3([H])C1([H])O[H])C2([H])C([H])([H])C([H])([H])N6[H]

$$$$
36:1:0
     RDKit          3D

 79 87  0  0  1  0  0  0  0  0999 V2000
    5.1994   -1.8812    3.6839 C   0  0  0  0  0  0  0  0  0  0  0  0
    5.2747   -2.8781    2.5504 C   0  0  0  0  0  0  0  0  0  0  0  0
    5.2504   -4.2075    2.4330 C   0  0  0  0  0  0  0  0  0  0  0  0
    5.3692   -4.1482    0.8874 C   0  0  1  0  0  0  0  0  0  0  0  0
    4.2266   -4.6728   -0.0314 C   0  0  1  0  0  0  0  0  0  0  0  0
    4.3109   -6.0743   -0.1228 O   0  0  0  0  0  0  0  0  0  0  0  0
    2.7460   -4.2440    0.2423 C   0  0  1  0  0  0  0  0  0  0  0  0
    1.8132   -5.0588   -0.4530 O   0  0  0  0  0  0  0  0  0  0  0  0
    2.4248   -4.2335    1.7070 C   0  0  0  0  0  0  0  0  0  0  0  0
    2.4356   -5.3453    2.4529 C   0  0  0  0  0  0  0  0  0  0  0  0
    2.6186   -5.3172    3.9151 C   0  0  1  0  0  0  0  0  0  0  0  0
    1.5467   -4.6175    4.7172 C   0  0  0  0  0  0  0  0  0  0  0  0
    1.7691   -6.1024    4.8780 C   0  0  1  0  0  0  0  0  0  0  0  0
    0.7749   -7.0633    4.2968 C   0  0  0  0  0  0  0  0  0  0  0  0
   -0.3480   -6.7124    3.9396 O   0  0  0  0  0  0  0  0  0  0  0  0
    1.1977   -8.5374    4.2494 C   0  0  2  0  0  0  0  0  0  0  0  0
    0.1549   -9.4984    4.6466 C   0  0  1  0  0  0  0  0  0  0  0  0
    0.7296  -10.8426    3.9834 C   0  0  0  0  0  0  0  0  0  0  0  0
    2.3311  -10.9296    3.8408 C   0  0  0  0  0  0  0  0  0  0  0  0
    3.1468   -9.9202    4.6277 N   0  0  0  0  0  0  0  0  0  0  0  0
    2.1063   -9.0619    5.3991 C   0  0  2  0  0  0  0  0  0  0  0  0
    1.5054  -10.0405    6.1578 O   0  0  0  0  0  0  0  0  0  0  0  0
    0.3355   -9.5001    6.2085 C   0  0  2  0  0  0  0  0  0  0  0  0
   -0.5837  -10.2900    6.8964 O   0  0  0  0  0  0  0  0  0  0  0  0
    0.8413   -8.2434    7.0472 C   0  0  1  0  0  0  0  0  0  0  0  0
    0.7853   -8.4080    8.4478 O   0  0  0  0  0  0  0  0  0  0  0  0
    2.3524   -8.0866    6.5211 C   0  0  1  0  0  0  0  0  0  0  0  0
    3.4071   -8.5823    7.5371 C   0  0  0  0  0  0  0  0  0  0  0  0
    2.6387   -6.6496    6.0057 C   0  0  1  0  0  0  0  0  0  0  0  0
    4.0808   -6.4318    5.5324 C   0  0  0  0  0  0  0  0  0  0  0  0
    4.0504   -5.3411    4.4412 C   0  0  1  0  0  0  0  0  0  0  0  0
    5.2488   -5.3964    3.4305 C   0  0  0  0  0  0  0  0  0  0  0  0
    5.3984   -6.7435    2.6912 C   0  0  0  0  0  0  0  0  0  0  0  0
    6.5256   -5.3113    4.2811 C   0  0  0  0  0  0  0  0  0  0  0  0
    5.5221   -2.6048    1.0813 C   0  0  2  0  0  0  0  0  0  0  0  0
    6.8393   -1.9060    0.7646 C   0  0  0  0  0  0  0  0  0  0  0  0
    6.4557   -1.0689   -0.3097 O   0  0  0  0  0  0  0  0  0  0  0  0
    5.1684   -0.6911    0.0234 C   0  0  0  0  0  0  0  0  0  0  0  0
    4.5089   -1.8042    0.5040 O   0  0  0  0  0  0  0  0  0  0  0  0
    6.0127   -1.1652    3.6049 H   0  0  0  0  0  0  0  0  0  0  0  0
    5.2403   -2.3608    4.6651 H   0  0  0  0  0  0  0  0  0  0  0  0
    4.2845   -1.3024    3.6008 H   0  0  0  0  0  0  0  0  0  0  0  0
    6.3267   -4.5179    0.5338 H   0  0  0  0  0  0  0  0  0  0  0  0
    4.4299   -4.3299   -1.0485 H   0  0  0  0  0  0  0  0  0  0  0  0
    3.9047   -6.3112   -0.9462 H   0  0  0  0  0  0  0  0  0  0  0  0
    2.6027   -3.2261   -0.1174 H   0  0  0  0  0  0  0  0  0  0  0  0
    2.1826   -5.2286   -1.3158 H   0  0  0  0  0  0  0  0  0  0  0  0
    2.4441   -3.2649    2.1881 H   0  0  0  0  0  0  0  0  0  0  0  0
    2.5127   -6.3114    1.9839 H   0  0  0  0  0  0  0  0  0  0  0  0
    1.8798   -3.9875    5.5471 H   0  0  0  0  0  0  0  0  0  0  0  0
    0.6451   -4.2829    4.1930 H   0  0  0  0  0  0  0  0  0  0  0  0
    1.5953   -8.7418    3.2548 H   0  0  0  0  0  0  0  0  0  0  0  0
   -0.8766   -9.2512    4.3471 H   0  0  0  0  0  0  0  0  0  0  0  0
    0.3813  -11.7021    4.5469 H   0  0  0  0  0  0  0  0  0  0  0  0
    0.3151  -10.9661    2.9887 H   0  0  0  0  0  0  0  0  0  0  0  0
    2.6687  -11.9268    4.1167 H   0  0  0  0  0  0  0  0  0  0  0  0
    2.6008  -10.8277    2.7919 H   0  0  0  0  0  0  0  0  0  0  0  0
    3.7058  -10.4334    5.3003 H   0  0  0  0  0  0  0  0  0  0  0  0
   -1.1726  -10.6353    6.2088 H   0  0  0  0  0  0  0  0  0  0  0  0
    0.1953   -7.4003    6.8538 H   0  0  0  0  0  0  0  0  0  0  0  0
    1.1034   -9.2747    8.6305 H   0  0  0  0  0  0  0  0  0  0  0  0
    3.5075   -7.8678    8.3564 H   0  0  0  0  0  0  0  0  0  0  0  0
    4.3922   -8.6992    7.0906 H   0  0  0  0  0  0  0  0  0  0  0  0
    3.1303   -9.5377    7.9778 H   0  0  0  0  0  0  0  0  0  0  0  0
    2.4649   -5.9698    6.8372 H   0  0  0  0  0  0  0  0  0  0  0  0
    4.7370   -6.1737    6.3614 H   0  0  0  0  0  0  0  0  0  0  0  0
    4.4402   -7.3641    5.1122 H   0  0  0  0  0  0  0  0  0  0  0  0
    4.1558   -4.3940    4.9624 H   0  0  0  0  0  0  0  0  0  0  0  0
    5.7397   -7.5257    3.3693 H   0  0  0  0  0  0  0  0  0  0  0  0
    6.1556   -6.6818    1.9048 H   0  0  0  0  0  0  0  0  0  0  0  0
    4.4716   -7.0844    2.2440 H   0  0  0  0  0  0  0  0  0  0  0  0
    6.6932   -6.1346    4.9723 H   0  0  0  0  0  0  0  0  0  0  0  0
    6.5619   -4.4021    4.8811 H   0  0  0  0  0  0  0  0  0  0  0  0
    7.3839   -5.3138    3.6189 H   0  0  0  0  0  0  0  0  0  0  0  0
    7.2187   -1.2728    1.5706 H   0  0  0  0  0  0  0  0  0  0  0  0
    7.6241   -2.5969    0.4582 H   0  0  0  0  0  0  0  0  0  0  0  0
    5.2219    0.0855    0.7855 H   0  0  0  0  0  0  0  0  0  0  0  0
    4.6549   -0.2965   -0.8536 H   0  0  0  0  0  0  0  0  0  0  0  0
    3.7161   -9.3431    4.0222 H   0  0  0  0  0  0  0  0  0  0  0  0
  1  2  1  0
  1 40  1  0
  1 41  1  0
  1 42  1  0
  2 35  1  0
  2  3  2  0
  3 32  1  0
  3  4  1  0
  4  5  1  0
  4 35  1  0
  4 43  1  6
  5  6  1  0
  5  7  1  0
  5 44  1  6
  6 45  1  0
  7  8  1  0
  7  9  1  0
  7 46  1  6
  8 47  1  0
  9 10  2  3
  9 48  1  0
 10 11  1  0
 10 49  1  0
 11 13  1  0
 11 31  1  0
 11 12  1  1
 13 12  1  1
 12 50  1  0
 12 51  1  0
 13 29  1  0
 13 14  1  0
 14 15  2  0
 14 16  1  0
 16 21  1  0
 16 17  1  0
 16 52  1  6
 17 23  1  0
 17 18  1  0
 17 53  1  1
 18 19  1  0
 18 54  1  0
 18 55  1  0
 19 20  1  0
 19 56  1  0
 19 57  1  0
 21 20  1  6
 20 58  1  0
 20 79  1  0
 21 27  1  0
 21 22  1  0
 22 23  1  0
 23 24  1  1
 23 25  1  0
 24 59  1  0
 25 26  1  0
 25 27  1  0
 25 60  1  1
 26 61  1  0
 27 28  1  1
 27 29  1  0
 28 62  1  0
 28 63  1  0
 28 64  1  0
 29 30  1  0
 29 65  1  1
 30 31  1  0
 30 66  1  0
 30 67  1  0
 31 32  1  0
 31 68  1  1
 32 33  1  0
 32 34  1  0
 33 69  1  0
 33 70  1  0
 33 71  1  0
 34 72  1  0
 34 73  1  0
 34 74  1  0
 35 39  1  6
 35 36  1  0
 36 37  1  0
 36 75  1  0
 36 76  1  0
 37 38  1  0
 38 39  1  0
 38 77  1  0
 38 78  1  0
M  CHG  1  20   1
M  END
>  <i_m_ct_stereo_status>  (122) 
1

>  <s_m_source_file>  (122) 
/var/tmp/pbs.5076255.sched01/tmpbrsd6n1o/39u_ie0p0h.sdf

>  <i_m_source_file_index>  (122) 
9

>  <i_lp_mmshare_version>  (122) 
48012

>  <i_f3d_flags>  (122) 
0

>  <s_epik_input>  (122) 
TzFbQ0gyXU9bQ0gyXVtDQF0xKEM9MltDSDNdKVtDQEhdKFtDQEBIXShbT0hdKVtDQEBIXShbT0hdKS9bQ0hdPVtDSF1cMylDMkMoW0NIM10pKFtDSDNdKVtDQEBIXTRbQ0gyXVtDQEBIXShbQ0BdNShbQ0BdMzQ2KVtDSDJdNilbQ0BdNyhbQ0gzXSlbQ0BAXTg5W0NASF0oQzU9TylbQ0BASF0oW0NIMl1bQ0gyXVtOSF04KVtDQF0oTzkpKFtPSF0pW0NASF03W09IXQ==

>  <s_epik_cmdline>  (122) 
J2VwaWtfcHl0aG9uJywgJy1waHQnLCAnMi4wJywgJy1waCcsICc3LjAnLCAnLXRuJywgJzgnLCAnLW1hJywgJzIwMCcsICctaW1hZScsICc8aW5maWxlLm1hZT4nLCAnLW9tYWUnLCAnPG91dGZpbGUubWFlPic=

>  <r_lp_tautomer_probability>  (122) 
0.99995

>  <r_epik_Ionization_Penalty>  (122) 
0.938239

>  <r_epik_Ionization_Penalty_Charging>  (122) 
0.938089

>  <r_epik_Ionization_Penalty_Neutral>  (122) 
0.000149186

>  <r_epik_State_Penalty>  (122) 
0.981232

>  <r_epik_Charging_Adjusted_Penalty>  (122) 
1.91932

>  <i_epik_Tot_Q>  (122) 
1

>  <i_epik_Tot_abs_Q>  (122) 
1

>  <s_epik_Chemistry_Notes>  (122) 
This compound contains an acetal/aminal-like group ( X-CH(R)-Y where X, Y are N, S, or O) that may be acid/base labile, releasing an aldehyde.

>  <s_lp_Force_Field>  (122) 
OPLS3e

>  <r_lp_Energy>  (122) 
123.28

>  <b_lp_Chiralities_Consistent>  (122) 
1

>  <s_lp_Variant>  (122) 
36:0-2

>  <s_i_glide_gridfile>  (122) 
pfpi4k_grid

>  <i_i_glide_lignum>  (122) 
9

>  <i_i_glide_rotatable_bonds>  (122) 
4

>  <r_i_docking_score>  (122) 
-4.39095

>  <r_i_glide_ligand_efficiency>  (122) 
-0.112588

>  <r_i_glide_ligand_efficiency_sa>  (122) 
-0.381811

>  <r_i_glide_ligand_efficiency_ln>  (122) 
-0.941544

>  <r_i_glide_gscore>  (122) 
-4.39095

>  <r_i_glide_lipo>  (122) 
-0.283862

>  <r_i_glide_hbond>  (122) 
-0.0725691

>  <r_i_glide_metal>  (122) 
-0

>  <r_i_glide_rewards>  (122) 
-0.0560362

>  <r_i_glide_evdw>  (122) 
-18.3058

>  <r_i_glide_ecoul>  (122) 
-19.6313

>  <r_i_glide_erotb>  (122) 
0

>  <r_i_glide_esite>  (122) 
-0.118491

>  <r_i_glide_emodel>  (122) 
-48.785

>  <r_i_glide_energy>  (122) 
-37.9372

>  <r_i_glide_einternal>  (122) 
2.42667

>  <r_i_glide_intrahb_reward>  (122) 
-0

>  <i_i_glide_confnum>  (122) 
3

>  <i_i_glide_posenum>  (122) 
37

>  <r_i_glide_eff_state_penalty>  (122) 
0

>  <ligand_id>  (122) 
36

>  <original_smiles>  (122) 
CC1=C2C(C(O)C(O)C=CC34CC35C(=O)C3C6CCNC37OC6(O)C(O)C7(C)C5CC4C2(C)C)C12COCO2

>  <smiles>  (122) 
[H]OC1([H])C([H])=C([H])C23C([H])([H])C24C(=O)C2([H])C5([H])C([H])([H])C([H])([H])[N+]([H])([H])C26OC5(O[H])C([H])(O[H])C6(C([H])([H])[H])C4([H])C([H])([H])C3([H])C(C([H])([H])[H])(C([H])([H])[H])C2=C(C([H])([H])[H])C3(OC([H])([H])OC3([H])[H])C2([H])C1([H])O[H]

$$$$
36:1:1
     RDKit          3D

 79 87  0  0  1  0  0  0  0  0999 V2000
    5.1393   -1.7810    3.7460 C   0  0  0  0  0  0  0  0  0  0  0  0
    5.2256   -2.8163    2.6496 C   0  0  0  0  0  0  0  0  0  0  0  0
    5.2063   -4.1562    2.5681 C   0  0  0  0  0  0  0  0  0  0  0  0
    5.3303   -4.1372    1.0188 C   0  0  1  0  0  0  0  0  0  0  0  0
    4.1932   -4.7302    0.1348 C   0  0  1  0  0  0  0  0  0  0  0  0
    4.3059   -6.1358    0.0919 O   0  0  0  0  0  0  0  0  0  0  0  0
    2.7140   -4.3112    0.4000 C   0  0  1  0  0  0  0  0  0  0  0  0
    1.8342   -5.1825   -0.3134 O   0  0  0  0  0  0  0  0  0  0  0  0
    2.3918   -4.2641    1.8688 C   0  0  0  0  0  0  0  0  0  0  0  0
    2.4285   -5.3365    2.6575 C   0  0  0  0  0  0  0  0  0  0  0  0
    2.6155   -5.2387    4.1162 C   0  0  1  0  0  0  0  0  0  0  0  0
    1.5384   -4.5425    4.9040 C   0  0  0  0  0  0  0  0  0  0  0  0
    1.7776   -6.0117    5.1113 C   0  0  1  0  0  0  0  0  0  0  0  0
    0.7966   -7.0194    4.5937 C   0  0  0  0  0  0  0  0  0  0  0  0
   -0.3243   -6.6920    4.2192 O   0  0  0  0  0  0  0  0  0  0  0  0
    1.2440   -8.4811    4.5774 C   0  0  2  0  0  0  0  0  0  0  0  0
    0.2258   -9.4592    5.0080 C   0  0  1  0  0  0  0  0  0  0  0  0
    0.8364  -10.8128    4.4011 C   0  0  0  0  0  0  0  0  0  0  0  0
    2.4427  -10.8619    4.2604 C   0  0  0  0  0  0  0  0  0  0  0  0
    3.2260   -9.7971    5.0108 N   0  0  0  0  0  0  0  0  0  0  0  0
    2.1654   -8.9294    5.7406 C   0  0  2  0  0  0  0  0  0  0  0  0
    1.5773   -9.8935    6.5193 O   0  0  0  0  0  0  0  0  0  0  0  0
    0.3970   -9.3922    6.5740 C   0  0  2  0  0  0  0  0  0  0  0  0
   -0.4333  -10.2571    7.2671 O   0  0  0  0  0  0  0  0  0  0  0  0
    0.8972   -8.0988    7.3592 C   0  0  1  0  0  0  0  0  0  0  0  0
    0.8226   -8.2247    8.7629 O   0  0  0  0  0  0  0  0  0  0  0  0
    2.4008   -7.9149    6.8284 C   0  0  1  0  0  0  0  0  0  0  0  0
    3.4824   -8.3600    7.8542 C   0  0  0  0  0  0  0  0  0  0  0  0
    2.6632   -6.4964    6.2493 C   0  0  1  0  0  0  0  0  0  0  0  0
    4.1047   -6.2784    5.7643 C   0  0  0  0  0  0  0  0  0  0  0  0
    4.0539   -5.2297    4.6313 C   0  0  1  0  0  0  0  0  0  0  0  0
    5.2481   -5.2968    3.6151 C   0  0  0  0  0  0  0  0  0  0  0  0
    5.4186   -6.6697    2.9318 C   0  0  0  0  0  0  0  0  0  0  0  0
    6.5188   -5.1450    4.4712 C   0  0  0  0  0  0  0  0  0  0  0  0
    5.4580   -2.5874    1.1705 C   0  0  2  0  0  0  0  0  0  0  0  0
    6.7592   -1.8771    0.8028 C   0  0  0  0  0  0  0  0  0  0  0  0
    6.3573   -1.0902   -0.2930 O   0  0  0  0  0  0  0  0  0  0  0  0
    5.0685   -0.7194    0.0357 C   0  0  0  0  0  0  0  0  0  0  0  0
    4.4316   -1.8301    0.5618 O   0  0  0  0  0  0  0  0  0  0  0  0
    5.9507   -1.0659    3.6441 H   0  0  0  0  0  0  0  0  0  0  0  0
    5.1928   -2.2233    4.7378 H   0  0  0  0  0  0  0  0  0  0  0  0
    4.2154   -1.2149    3.6509 H   0  0  0  0  0  0  0  0  0  0  0  0
    6.2952   -4.5166    0.6816 H   0  0  0  0  0  0  0  0  0  0  0  0
    4.3965   -4.4154   -0.8872 H   0  0  0  0  0  0  0  0  0  0  0  0
    3.9463   -6.3991   -0.7428 H   0  0  0  0  0  0  0  0  0  0  0  0
    2.5477   -3.3090    0.0029 H   0  0  0  0  0  0  0  0  0  0  0  0
    2.1698   -5.2552   -1.1855 H   0  0  0  0  0  0  0  0  0  0  0  0
    2.3879   -3.2768    2.3129 H   0  0  0  0  0  0  0  0  0  0  0  0
    2.5165   -6.3149    2.2143 H   0  0  0  0  0  0  0  0  0  0  0  0
    1.8694   -3.8805    5.7034 H   0  0  0  0  0  0  0  0  0  0  0  0
    0.6352   -4.2464    4.3748 H   0  0  0  0  0  0  0  0  0  0  0  0
    1.6463   -8.7047    3.5875 H   0  0  0  0  0  0  0  0  0  0  0  0
   -0.8100   -9.2430    4.7079 H   0  0  0  0  0  0  0  0  0  0  0  0
    0.4987  -11.6595    4.9957 H   0  0  0  0  0  0  0  0  0  0  0  0
    0.4108  -10.9790    3.4170 H   0  0  0  0  0  0  0  0  0  0  0  0
    2.7914  -11.8537    4.5588 H   0  0  0  0  0  0  0  0  0  0  0  0
    2.6897  -10.7983    3.1993 H   0  0  0  0  0  0  0  0  0  0  0  0
    3.8034  -10.2905    5.6804 H   0  0  0  0  0  0  0  0  0  0  0  0
    0.0515  -11.0636    7.3874 H   0  0  0  0  0  0  0  0  0  0  0  0
    0.2302   -7.2766    7.1357 H   0  0  0  0  0  0  0  0  0  0  0  0
    1.2524   -9.0282    9.0105 H   0  0  0  0  0  0  0  0  0  0  0  0
    3.5825   -7.6164    8.6464 H   0  0  0  0  0  0  0  0  0  0  0  0
    4.4641   -8.4827    7.3992 H   0  0  0  0  0  0  0  0  0  0  0  0
    3.2359   -9.3067    8.3300 H   0  0  0  0  0  0  0  0  0  0  0  0
    2.4974   -5.7993    7.0613 H   0  0  0  0  0  0  0  0  0  0  0  0
    4.7716   -5.9794    6.5798 H   0  0  0  0  0  0  0  0  0  0  0  0
    4.4849   -7.2209    5.3780 H   0  0  0  0  0  0  0  0  0  0  0  0
    4.1456   -4.2662    5.1199 H   0  0  0  0  0  0  0  0  0  0  0  0
    5.7746   -7.4239    3.6333 H   0  0  0  0  0  0  0  0  0  0  0  0
    6.1656   -6.6230    2.1378 H   0  0  0  0  0  0  0  0  0  0  0  0
    4.4986   -7.0468    2.4996 H   0  0  0  0  0  0  0  0  0  0  0  0
    6.7071   -5.9426    5.1889 H   0  0  0  0  0  0  0  0  0  0  0  0
    6.5364   -4.2114    5.0264 H   0  0  0  0  0  0  0  0  0  0  0  0
    7.3752   -5.1637    3.8111 H   0  0  0  0  0  0  0  0  0  0  0  0
    7.1253   -1.2284    1.5992 H   0  0  0  0  0  0  0  0  0  0  0  0
    7.5506   -2.5729    0.5293 H   0  0  0  0  0  0  0  0  0  0  0  0
    5.1139    0.0811    0.7789 H   0  0  0  0  0  0  0  0  0  0  0  0
    4.5462   -0.3509   -0.8501 H   0  0  0  0  0  0  0  0  0  0  0  0
    3.7867   -9.2635    4.3594 H   0  0  0  0  0  0  0  0  0  0  0  0
  1  2  1  0
  1 40  1  0
  1 41  1  0
  1 42  1  0
  2 35  1  0
  2  3  2  0
  3 32  1  0
  3  4  1  0
  4  5  1  0
  4 35  1  0
  4 43  1  1
  5  6  1  0
  5  7  1  0
  5 44  1  6
  6 45  1  0
  7  8  1  0
  7  9  1  0
  7 46  1  6
  8 47  1  0
  9 10  2  3
  9 48  1  0
 10 11  1  0
 10 49  1  0
 11 13  1  0
 11 31  1  0
 11 12  1  1
 13 12  1  1
 12 50  1  0
 12 51  1  0
 13 29  1  0
 13 14  1  0
 14 15  2  0
 14 16  1  0
 16 21  1  0
 16 17  1  0
 16 52  1  6
 17 23  1  0
 17 18  1  0
 17 53  1  1
 18 19  1  0
 18 54  1  0
 18 55  1  0
 19 20  1  0
 19 56  1  0
 19 57  1  0
 21 20  1  6
 20 58  1  0
 20 79  1  0
 21 27  1  0
 21 22  1  0
 22 23  1  0
 23 24  1  1
 23 25  1  0
 24 59  1  0
 25 26  1  0
 25 27  1  0
 25 60  1  6
 26 61  1  0
 27 28  1  1
 27 29  1  0
 28 62  1  0
 28 63  1  0
 28 64  1  0
 29 30  1  0
 29 65  1  1
 30 31  1  0
 30 66  1  0
 30 67  1  0
 31 32  1  0
 31 68  1  1
 32 33  1  0
 32 34  1  0
 33 69  1  0
 33 70  1  0
 33 71  1  0
 34 72  1  0
 34 73  1  0
 34 74  1  0
 35 39  1  6
 35 36  1  0
 36 37  1  0
 36 75  1  0
 36 76  1  0
 37 38  1  0
 38 39  1  0
 38 77  1  0
 38 78  1  0
M  CHG  1  20   1
M  END
>  <i_m_ct_stereo_status>  (123) 
1

>  <s_m_source_file>  (123) 
/var/tmp/pbs.5076255.sched01/tmpbrsd6n1o/39u_ie0p0h.sdf

>  <i_m_source_file_index>  (123) 
9

>  <i_lp_mmshare_version>  (123) 
48012

>  <i_f3d_flags>  (123) 
0

>  <s_epik_input>  (123) 
TzFbQ0gyXU9bQ0gyXVtDQF0xKEM9MltDSDNdKVtDQEhdKFtDQEBIXShbT0hdKVtDQEBIXShbT0hdKS9bQ0hdPVtDSF1cMylDMkMoW0NIM10pKFtDSDNdKVtDQEBIXTRbQ0gyXVtDQEBIXShbQ0BdNShbQ0BdMzQ2KVtDSDJdNilbQ0BdNyhbQ0gzXSlbQ0BAXTg5W0NASF0oQzU9TylbQ0BASF0oW0NIMl1bQ0gyXVtOSF04KVtDQF0oTzkpKFtPSF0pW0NASF03W09IXQ==

>  <s_epik_cmdline>  (123) 
J2VwaWtfcHl0aG9uJywgJy1waHQnLCAnMi4wJywgJy1waCcsICc3LjAnLCAnLXRuJywgJzgnLCAnLW1hJywgJzIwMCcsICctaW1hZScsICc8aW5maWxlLm1hZT4nLCAnLW9tYWUnLCAnPG91dGZpbGUubWFlPic=

>  <r_lp_tautomer_probability>  (123) 
0.99995

>  <r_epik_Ionization_Penalty>  (123) 
0.938239

>  <r_epik_Ionization_Penalty_Charging>  (123) 
0.938089

>  <r_epik_Ionization_Penalty_Neutral>  (123) 
0.000149186

>  <r_epik_State_Penalty>  (123) 
0.981232

>  <r_epik_Charging_Adjusted_Penalty>  (123) 
1.91932

>  <i_epik_Tot_Q>  (123) 
1

>  <i_epik_Tot_abs_Q>  (123) 
1

>  <s_epik_Chemistry_Notes>  (123) 
This compound contains an acetal/aminal-like group ( X-CH(R)-Y where X, Y are N, S, or O) that may be acid/base labile, releasing an aldehyde.

>  <s_lp_Force_Field>  (123) 
OPLS3e

>  <r_lp_Energy>  (123) 
123.28

>  <b_lp_Chiralities_Consistent>  (123) 
1

>  <s_lp_Variant>  (123) 
36:0-2

>  <s_i_glide_gridfile>  (123) 
pfpi4k_grid

>  <i_i_glide_lignum>  (123) 
9

>  <i_i_glide_rotatable_bonds>  (123) 
4

>  <r_i_docking_score>  (123) 
-3.97371

>  <r_i_glide_ligand_efficiency>  (123) 
-0.10189

>  <r_i_glide_ligand_efficiency_sa>  (123) 
-0.34553

>  <r_i_glide_ligand_efficiency_ln>  (123) 
-0.852075

>  <r_i_glide_gscore>  (123) 
-3.97371

>  <r_i_glide_lipo>  (123) 
-0.294121

>  <r_i_glide_hbond>  (123) 
-0.0714814

>  <r_i_glide_metal>  (123) 
-0

>  <r_i_glide_rewards>  (123) 
-0.0600871

>  <r_i_glide_evdw>  (123) 
-19.9119

>  <r_i_glide_ecoul>  (123) 
-16.2039

>  <r_i_glide_erotb>  (123) 
0

>  <r_i_glide_esite>  (123) 
-0.12184

>  <r_i_glide_emodel>  (123) 
-45.7256

>  <r_i_glide_energy>  (123) 
-36.1158

>  <r_i_glide_einternal>  (123) 
2.8189

>  <r_i_glide_intrahb_reward>  (123) 
-0

>  <i_i_glide_confnum>  (123) 
6

>  <i_i_glide_posenum>  (123) 
31

>  <r_i_glide_eff_state_penalty>  (123) 
0

>  <ligand_id>  (123) 
36

>  <original_smiles>  (123) 
CC1=C2C(C(O)C(O)C=CC34CC35C(=O)C3C6CCNC37OC6(O)C(O)C7(C)C5CC4C2(C)C)C12COCO2

>  <smiles>  (123) 
[H]OC1([H])C([H])=C([H])C23C([H])([H])C24C(=O)C2([H])C5([H])C([H])([H])C([H])([H])[N+]([H])([H])C26OC5(O[H])C([H])(O[H])C6(C([H])([H])[H])C4([H])C([H])([H])C3([H])C(C([H])([H])[H])(C([H])([H])[H])C2=C(C([H])([H])[H])C3(OC([H])([H])OC3([H])[H])C2([H])C1([H])O[H]

$$$$
36:1:2
     RDKit          3D

 79 87  0  0  1  0  0  0  0  0999 V2000
    5.3400   -2.0980    3.5938 C   0  0  0  0  0  0  0  0  0  0  0  0
    5.3568   -3.1365    2.4916 C   0  0  0  0  0  0  0  0  0  0  0  0
    5.2920   -4.4587    2.4075 C   0  0  0  0  0  0  0  0  0  0  0  0
    5.3606   -4.4416    0.8578 C   0  0  1  0  0  0  0  0  0  0  0  0
    4.1676   -4.9823    0.0188 C   0  0  1  0  0  0  0  0  0  0  0  0
    4.2660   -6.3913    0.0116 O   0  0  0  0  0  0  0  0  0  0  0  0
    2.7127   -4.5118    0.3523 C   0  0  1  0  0  0  0  0  0  0  0  0
    1.7674   -5.3344   -0.3058 O   0  0  0  0  0  0  0  0  0  0  0  0
    2.4465   -4.4551    1.8273 C   0  0  0  0  0  0  0  0  0  0  0  0
    2.4637   -5.5456    2.5984 C   0  0  0  0  0  0  0  0  0  0  0  0
    2.7094   -5.4686    4.0423 C   0  0  1  0  0  0  0  0  0  0  0  0
    1.6831   -4.7375    4.8661 C   0  0  0  0  0  0  0  0  0  0  0  0
    1.8791   -6.2153    5.0558 C   0  0  1  0  0  0  0  0  0  0  0  0
    0.8460   -7.1794    4.5547 C   0  0  0  0  0  0  0  0  0  0  0  0
   -0.2762   -6.8173    4.2265 O   0  0  0  0  0  0  0  0  0  0  0  0
    1.2525   -8.6559    4.5168 C   0  0  2  0  0  0  0  0  0  0  0  0
    0.2201   -9.5897    4.9849 C   0  0  1  0  0  0  0  0  0  0  0  0
    0.7393  -10.9675    4.3470 C   0  0  0  0  0  0  0  0  0  0  0  0
    2.3369  -11.0853    4.1481 C   0  0  0  0  0  0  0  0  0  0  0  0
    3.1843  -10.0613    4.8819 N   0  0  0  0  0  0  0  0  0  0  0  0
    2.1871   -9.1526    5.6533 C   0  0  2  0  0  0  0  0  0  0  0  0
    1.5803  -10.0851    6.4527 O   0  0  0  0  0  0  0  0  0  0  0  0
    0.4326   -9.5211    6.5434 C   0  0  2  0  0  0  0  0  0  0  0  0
   -0.4393  -10.2882    7.2576 O   0  0  0  0  0  0  0  0  0  0  0  0
    1.0069   -8.2616    7.3168 C   0  0  1  0  0  0  0  0  0  0  0  0
    0.9751   -8.4069    8.7234 O   0  0  0  0  0  0  0  0  0  0  0  0
    2.4945   -8.1489    6.7347 C   0  0  1  0  0  0  0  0  0  0  0  0
    3.5823   -8.6462    7.7248 C   0  0  0  0  0  0  0  0  0  0  0  0
    2.7851   -6.7380    6.1595 C   0  0  1  0  0  0  0  0  0  0  0  0
    4.2148   -6.5732    5.6260 C   0  0  0  0  0  0  0  0  0  0  0  0
    4.1669   -5.5119    4.5026 C   0  0  1  0  0  0  0  0  0  0  0  0
    5.3283   -5.6114    3.4423 C   0  0  0  0  0  0  0  0  0  0  0  0
    5.4166   -6.9904    2.7510 C   0  0  0  0  0  0  0  0  0  0  0  0
    6.6385   -5.4796    4.2410 C   0  0  0  0  0  0  0  0  0  0  0  0
    5.5519   -2.8998    1.0118 C   0  0  2  0  0  0  0  0  0  0  0  0
    6.8708   -2.2480    0.6002 C   0  0  0  0  0  0  0  0  0  0  0  0
    6.4605   -1.4605   -0.4892 O   0  0  0  0  0  0  0  0  0  0  0  0
    5.2014   -1.0262   -0.1088 C   0  0  0  0  0  0  0  0  0  0  0  0
    4.5328   -2.1033    0.4426 O   0  0  0  0  0  0  0  0  0  0  0  0
    6.1596   -1.4015    3.4352 H   0  0  0  0  0  0  0  0  0  0  0  0
    5.4182   -2.5462    4.5823 H   0  0  0  0  0  0  0  0  0  0  0  0
    4.4277   -1.5107    3.5377 H   0  0  0  0  0  0  0  0  0  0  0  0
    6.2960   -4.8535    0.4839 H   0  0  0  0  0  0  0  0  0  0  0  0
    4.3342   -4.6802   -1.0149 H   0  0  0  0  0  0  0  0  0  0  0  0
    4.0657   -6.7058    0.8739 H   0  0  0  0  0  0  0  0  0  0  0  0
    2.5646   -3.5096   -0.0424 H   0  0  0  0  0  0  0  0  0  0  0  0
    2.1033   -5.4766   -1.1848 H   0  0  0  0  0  0  0  0  0  0  0  0
    2.4987   -3.4680    2.2767 H   0  0  0  0  0  0  0  0  0  0  0  0
    2.4834   -6.5242    2.1479 H   0  0  0  0  0  0  0  0  0  0  0  0
    2.0576   -4.0885    5.6559 H   0  0  0  0  0  0  0  0  0  0  0  0
    0.7744   -4.4048    4.3673 H   0  0  0  0  0  0  0  0  0  0  0  0
    1.6103   -8.8891    3.5088 H   0  0  0  0  0  0  0  0  0  0  0  0
   -0.8055   -9.3293    4.7020 H   0  0  0  0  0  0  0  0  0  0  0  0
    0.3865  -11.7995    4.9521 H   0  0  0  0  0  0  0  0  0  0  0  0
    0.2726  -11.1069    3.3736 H   0  0  0  0  0  0  0  0  0  0  0  0
    2.6524  -12.0914    4.4331 H   0  0  0  0  0  0  0  0  0  0  0  0
    2.5482  -11.0185    3.0787 H   0  0  0  0  0  0  0  0  0  0  0  0
    3.7606  -10.5752    5.5333 H   0  0  0  0  0  0  0  0  0  0  0  0
    0.0094  -11.1352    7.3820 H   0  0  0  0  0  0  0  0  0  0  0  0
    0.3559   -7.4180    7.1189 H   0  0  0  0  0  0  0  0  0  0  0  0
    1.3756   -9.2344    8.9405 H   0  0  0  0  0  0  0  0  0  0  0  0
    3.7293   -7.9140    8.5197 H   0  0  0  0  0  0  0  0  0  0  0  0
    4.5420   -8.8038    7.2394 H   0  0  0  0  0  0  0  0  0  0  0  0
    3.3079   -9.5884    8.2000 H   0  0  0  0  0  0  0  0  0  0  0  0
    2.6636   -6.0419    6.9840 H   0  0  0  0  0  0  0  0  0  0  0  0
    4.9140   -6.3048    6.4230 H   0  0  0  0  0  0  0  0  0  0  0  0
    4.5423   -7.5286    5.2227 H   0  0  0  0  0  0  0  0  0  0  0  0
    4.3049   -4.5562    4.9963 H   0  0  0  0  0  0  0  0  0  0  0  0
    5.7679   -7.7580    3.4388 H   0  0  0  0  0  0  0  0  0  0  0  0
    6.1381   -6.9726    1.9314 H   0  0  0  0  0  0  0  0  0  0  0  0
    4.4638   -7.3429    2.3662 H   0  0  0  0  0  0  0  0  0  0  0  0
    6.8239   -6.3245    4.8995 H   0  0  0  0  0  0  0  0  0  0  0  0
    6.6303   -4.6181    4.9012 H   0  0  0  0  0  0  0  0  0  0  0  0
    7.4997   -5.4470    3.5752 H   0  0  0  0  0  0  0  0  0  0  0  0
    7.2860   -1.5957    1.3682 H   0  0  0  0  0  0  0  0  0  0  0  0
    7.6298   -2.9707    0.3064 H   0  0  0  0  0  0  0  0  0  0  0  0
    5.2993   -0.2351    0.6412 H   0  0  0  0  0  0  0  0  0  0  0  0
    4.6538   -0.6276   -0.9631 H   0  0  0  0  0  0  0  0  0  0  0  0
    3.7396   -9.5364    4.2204 H   0  0  0  0  0  0  0  0  0  0  0  0
  1  2  1  0
  1 40  1  0
  1 41  1  0
  1 42  1  0
  2 35  1  0
  2  3  2  0
  3 32  1  0
  3  4  1  0
  4  5  1  0
  4 35  1  0
  4 43  1  1
  5  6  1  0
  5  7  1  0
  5 44  1  6
  6 45  1  0
  7  8  1  0
  7  9  1  0
  7 46  1  6
  8 47  1  0
  9 10  2  3
  9 48  1  0
 10 11  1  0
 10 49  1  0
 11 13  1  0
 11 31  1  0
 11 12  1  1
 13 12  1  1
 12 50  1  0
 12 51  1  0
 13 29  1  0
 13 14  1  0
 14 15  2  0
 14 16  1  0
 16 21  1  0
 16 17  1  0
 16 52  1  6
 17 23  1  0
 17 18  1  0
 17 53  1  1
 18 19  1  0
 18 54  1  0
 18 55  1  0
 19 20  1  0
 19 56  1  0
 19 57  1  0
 21 20  1  6
 20 58  1  0
 20 79  1  0
 21 27  1  0
 21 22  1  0
 22 23  1  0
 23 24  1  1
 23 25  1  0
 24 59  1  0
 25 26  1  0
 25 27  1  0
 25 60  1  1
 26 61  1  0
 27 28  1  1
 27 29  1  0
 28 62  1  0
 28 63  1  0
 28 64  1  0
 29 30  1  0
 29 65  1  1
 30 31  1  0
 30 66  1  0
 30 67  1  0
 31 32  1  0
 31 68  1  1
 32 33  1  0
 32 34  1  0
 33 69  1  0
 33 70  1  0
 33 71  1  0
 34 72  1  0
 34 73  1  0
 34 74  1  0
 35 39  1  6
 35 36  1  0
 36 37  1  0
 36 75  1  0
 36 76  1  0
 37 38  1  0
 38 39  1  0
 38 77  1  0
 38 78  1  0
M  CHG  1  20   1
M  END
>  <i_m_ct_stereo_status>  (124) 
1

>  <s_m_source_file>  (124) 
/var/tmp/pbs.5076255.sched01/tmpbrsd6n1o/39u_ie0p0h.sdf

>  <i_m_source_file_index>  (124) 
9

>  <i_lp_mmshare_version>  (124) 
48012

>  <i_f3d_flags>  (124) 
0

>  <s_epik_input>  (124) 
TzFbQ0gyXU9bQ0gyXVtDQF0xKEM9MltDSDNdKVtDQEhdKFtDQEBIXShbT0hdKVtDQEBIXShbT0hdKS9bQ0hdPVtDSF1cMylDMkMoW0NIM10pKFtDSDNdKVtDQEBIXTRbQ0gyXVtDQEBIXShbQ0BdNShbQ0BdMzQ2KVtDSDJdNilbQ0BdNyhbQ0gzXSlbQ0BAXTg5W0NASF0oQzU9TylbQ0BASF0oW0NIMl1bQ0gyXVtOSF04KVtDQF0oTzkpKFtPSF0pW0NASF03W09IXQ==

>  <s_epik_cmdline>  (124) 
J2VwaWtfcHl0aG9uJywgJy1waHQnLCAnMi4wJywgJy1waCcsICc3LjAnLCAnLXRuJywgJzgnLCAnLW1hJywgJzIwMCcsICctaW1hZScsICc8aW5maWxlLm1hZT4nLCAnLW9tYWUnLCAnPG91dGZpbGUubWFlPic=

>  <r_lp_tautomer_probability>  (124) 
0.99995

>  <r_epik_Ionization_Penalty>  (124) 
0.938239

>  <r_epik_Ionization_Penalty_Charging>  (124) 
0.938089

>  <r_epik_Ionization_Penalty_Neutral>  (124) 
0.000149186

>  <r_epik_State_Penalty>  (124) 
0.981232

>  <r_epik_Charging_Adjusted_Penalty>  (124) 
1.91932

>  <i_epik_Tot_Q>  (124) 
1

>  <i_epik_Tot_abs_Q>  (124) 
1

>  <s_epik_Chemistry_Notes>  (124) 
This compound contains an acetal/aminal-like group ( X-CH(R)-Y where X, Y are N, S, or O) that may be acid/base labile, releasing an aldehyde.

>  <s_lp_Force_Field>  (124) 
OPLS3e

>  <r_lp_Energy>  (124) 
123.28

>  <b_lp_Chiralities_Consistent>  (124) 
1

>  <s_lp_Variant>  (124) 
36:0-2

>  <s_i_glide_gridfile>  (124) 
pfpi4k_grid

>  <i_i_glide_lignum>  (124) 
9

>  <i_i_glide_rotatable_bonds>  (124) 
4

>  <r_i_docking_score>  (124) 
-3.75069

>  <r_i_glide_ligand_efficiency>  (124) 
-0.0961714

>  <r_i_glide_ligand_efficiency_sa>  (124) 
-0.326138

>  <r_i_glide_ligand_efficiency_ln>  (124) 
-0.804253

>  <r_i_glide_gscore>  (124) 
-3.75069

>  <r_i_glide_lipo>  (124) 
-0.314532

>  <r_i_glide_hbond>  (124) 
-0.110718

>  <r_i_glide_metal>  (124) 
-0

>  <r_i_glide_rewards>  (124) 
0

>  <r_i_glide_evdw>  (124) 
-19.8545

>  <r_i_glide_ecoul>  (124) 
-14.6363

>  <r_i_glide_erotb>  (124) 
0

>  <r_i_glide_esite>  (124) 
-0.137268

>  <r_i_glide_emodel>  (124) 
-43.8076

>  <r_i_glide_energy>  (124) 
-34.4908

>  <r_i_glide_einternal>  (124) 
2.2213

>  <r_i_glide_intrahb_reward>  (124) 
-0

>  <i_i_glide_confnum>  (124) 
6

>  <i_i_glide_posenum>  (124) 
15

>  <r_i_glide_eff_state_penalty>  (124) 
0

>  <ligand_id>  (124) 
36

>  <original_smiles>  (124) 
CC1=C2C(C(O)C(O)C=CC34CC35C(=O)C3C6CCNC37OC6(O)C(O)C7(C)C5CC4C2(C)C)C12COCO2

>  <smiles>  (124) 
[H]OC1([H])C([H])=C([H])C23C([H])([H])C24C(=O)C2([H])C5([H])C([H])([H])C([H])([H])[N+]([H])([H])C26OC5(O[H])C([H])(O[H])C6(C([H])([H])[H])C4([H])C([H])([H])C3([H])C(C([H])([H])[H])(C([H])([H])[H])C2=C(C([H])([H])[H])C3(OC([H])([H])OC3([H])[H])C2([H])C1([H])O[H]

$$$$
37:0:0
     RDKit          3D

 69 74  0  0  1  0  0  0  0  0999 V2000
    4.2597   -1.9351   -0.9483 C   0  0  0  0  0  0  0  0  0  0  0  0
    4.5716   -2.1811    0.5634 C   0  0  0  0  0  0  0  0  0  0  0  0
    4.8236   -3.7139    0.6708 C   0  0  0  0  0  0  0  0  0  0  0  0
    5.8492   -1.4430    0.9313 C   0  0  0  0  0  0  0  0  0  0  0  0
    6.6183   -0.9991    0.0773 O   0  0  0  0  0  0  0  0  0  0  0  0
    6.2051   -1.3446    2.3918 C   0  0  0  0  0  0  0  0  0  0  0  0
    5.0563   -0.8020    3.2362 C   0  0  0  0  0  0  0  0  0  0  0  0
    3.7200   -1.5800    3.0491 C   0  0  2  0  0  0  0  0  0  0  0  0
    3.9384   -3.0151    3.6278 C   0  0  0  0  0  0  0  0  0  0  0  0
    3.4002   -1.6806    1.5112 C   0  0  1  0  0  0  0  0  0  0  0  0
    2.8189   -0.3201    1.0726 C   0  0  0  0  0  0  0  0  0  0  0  0
    1.4519   -0.0930    1.7300 C   0  0  0  0  0  0  0  0  0  0  0  0
    1.4441    0.0591    3.2740 C   0  0  1  0  0  0  0  0  0  0  0  0
    0.0640   -0.5246    3.7023 C   0  0  0  0  0  0  0  0  0  0  0  0
    2.4964   -0.9735    3.8829 C   0  0  2  0  0  0  0  0  0  0  0  0
    2.8010   -0.6249    5.3400 C   0  0  0  0  0  0  0  0  0  0  0  0
    2.7842   -1.4816    6.2245 O   0  0  0  0  0  0  0  0  0  0  0  0
    3.1196    0.8161    5.6677 C   0  0  0  0  0  0  0  0  0  0  0  0
    1.9160    1.6734    5.2837 C   0  0  0  0  0  0  0  0  0  0  0  0
    1.2983    2.4451    6.2120 C   0  0  0  0  0  0  0  0  0  0  0  0
    1.4782    2.6870    7.6148 C   0  0  0  0  0  0  0  0  0  0  0  0
    2.3079    2.2885    8.4268 O   0  0  0  0  0  0  0  0  0  0  0  0
    0.3786    3.5020    7.7110 O   0  0  0  0  0  0  0  0  0  0  0  0
    0.2085    3.4351    6.2753 C   0  0  2  0  0  0  0  0  0  0  0  0
   -1.1172    2.8161    5.8072 C   0  0  1  0  0  0  0  0  0  0  0  0
   -1.7445    1.8328    6.7860 C   0  0  0  0  0  0  0  0  0  0  0  0
   -2.1097    3.8377    5.2351 C   0  0  0  0  0  0  0  0  0  0  0  0
   -2.0810    3.2852    3.9293 O   0  0  0  0  0  0  0  0  0  0  0  0
   -1.0750    2.3570    4.3331 C   0  0  1  0  0  0  0  0  0  0  0  0
    0.1787    2.4482    3.4103 C   0  0  1  0  0  0  0  0  0  0  0  0
    0.4744    3.8371    3.2839 O   0  0  0  0  0  0  0  0  0  0  0  0
    1.5086    1.5933    3.7826 C   0  0  2  0  0  0  0  0  0  0  0  0
    2.6695    2.3054    3.0340 C   0  0  0  0  0  0  0  0  0  0  0  0
    3.2785   -2.3128   -1.2202 H   0  0  0  0  0  0  0  0  0  0  0  0
    4.9966   -2.3957   -1.6057 H   0  0  0  0  0  0  0  0  0  0  0  0
    4.2937   -0.8693   -1.2032 H   0  0  0  0  0  0  0  0  0  0  0  0
    3.9378   -4.2439    1.0026 H   0  0  0  0  0  0  0  0  0  0  0  0
    5.6361   -3.9632    1.3602 H   0  0  0  0  0  0  0  0  0  0  0  0
    5.1256   -4.1619   -0.2759 H   0  0  0  0  0  0  0  0  0  0  0  0
    6.4930   -2.3383    2.7181 H   0  0  0  0  0  0  0  0  0  0  0  0
    7.0767   -0.6930    2.5060 H   0  0  0  0  0  0  0  0  0  0  0  0
    5.3638   -0.7831    4.2808 H   0  0  0  0  0  0  0  0  0  0  0  0
    4.9406    0.2315    2.9295 H   0  0  0  0  0  0  0  0  0  0  0  0
    3.1026   -3.6772    3.3983 H   0  0  0  0  0  0  0  0  0  0  0  0
    4.0634   -3.0180    4.7131 H   0  0  0  0  0  0  0  0  0  0  0  0
    4.8365   -3.5153    3.2705 H   0  0  0  0  0  0  0  0  0  0  0  0
    2.6021   -2.4033    1.3865 H   0  0  0  0  0  0  0  0  0  0  0  0
    3.5085    0.5023    1.2148 H   0  0  0  0  0  0  0  0  0  0  0  0
    2.6351   -0.3324    0.0195 H   0  0  0  0  0  0  0  0  0  0  0  0
    0.9895    0.7714    1.2466 H   0  0  0  0  0  0  0  0  0  0  0  0
    0.8139   -0.9219    1.4456 H   0  0  0  0  0  0  0  0  0  0  0  0
   -0.1529   -0.3429    4.7589 H   0  0  0  0  0  0  0  0  0  0  0  0
   -0.0089   -1.5972    3.5427 H   0  0  0  0  0  0  0  0  0  0  0  0
   -0.7418   -0.1109    3.0933 H   0  0  0  0  0  0  0  0  0  0  0  0
    1.9147   -1.8772    4.0034 H   0  0  0  0  0  0  0  0  0  0  0  0
    3.3688    0.8917    6.7220 H   0  0  0  0  0  0  0  0  0  0  0  0
    4.0136    1.1257    5.1213 H   0  0  0  0  0  0  0  0  0  0  0  0
    0.4251    4.3974    5.7968 H   0  0  0  0  0  0  0  0  0  0  0  0
   -2.6944    1.4451    6.4276 H   0  0  0  0  0  0  0  0  0  0  0  0
   -1.9473    2.2992    7.7507 H   0  0  0  0  0  0  0  0  0  0  0  0
   -1.0898    0.9816    6.9638 H   0  0  0  0  0  0  0  0  0  0  0  0
   -3.0945    3.7963    5.7184 H   0  0  0  0  0  0  0  0  0  0  0  0
   -1.6888    4.8460    5.2630 H   0  0  0  0  0  0  0  0  0  0  0  0
   -1.5384    1.3748    4.3145 H   0  0  0  0  0  0  0  0  0  0  0  0
   -0.1382    2.1690    2.4112 H   0  0  0  0  0  0  0  0  0  0  0  0
    0.3147    4.0845    2.3553 H   0  0  0  0  0  0  0  0  0  0  0  0
    2.4517    2.4523    1.9835 H   0  0  0  0  0  0  0  0  0  0  0  0
    3.5845    1.7398    3.1117 H   0  0  0  0  0  0  0  0  0  0  0  0
    2.8996    3.2870    3.4515 H   0  0  0  0  0  0  0  0  0  0  0  0
  1  2  1  0
  1 34  1  0
  1 35  1  0
  1 36  1  0
  2 10  1  0
  2  3  1  0
  2  4  1  0
  3 37  1  0
  3 38  1  0
  3 39  1  0
  4  5  2  0
  4  6  1  0
  6  7  1  0
  6 40  1  0
  6 41  1  0
  7  8  1  0
  7 42  1  0
  7 43  1  0
  8 15  1  0
  8  9  1  1
  8 10  1  0
  9 44  1  0
  9 45  1  0
  9 46  1  0
 10 11  1  0
 10 47  1  1
 11 12  1  0
 11 48  1  0
 11 49  1  0
 12 13  1  0
 12 50  1  0
 12 51  1  0
 13 32  1  0
 13 14  1  1
 13 15  1  0
 14 52  1  0
 14 53  1  0
 14 54  1  0
 15 16  1  0
 15 55  1  1
 16 17  2  0
 16 18  1  0
 18 19  1  0
 18 56  1  0
 18 57  1  0
 19 32  1  0
 19 20  2  0
 20 24  1  0
 20 21  1  0
 21 22  2  0
 21 23  1  0
 23 24  1  0
 24 25  1  0
 24 58  1  6
 25 29  1  0
 25 26  1  1
 25 27  1  0
 26 59  1  0
 26 60  1  0
 26 61  1  0
 27 28  1  0
 27 62  1  0
 27 63  1  0
 28 29  1  0
 29 30  1  0
 29 64  1  1
 30 31  1  0
 30 32  1  0
 30 65  1  6
 31 66  1  0
 32 33  1  6
 33 67  1  0
 33 68  1  0
 33 69  1  0
M  END
>  <i_m_ct_stereo_status>  (125) 
1

>  <s_m_source_file>  (125) 
/var/tmp/pbs.5076255.sched01/tmpbrsd6n1o/39u_ie0p0h.sdf

>  <i_m_source_file_index>  (125) 
10

>  <i_lp_mmshare_version>  (125) 
48012

>  <i_f3d_flags>  (125) 
0

>  <s_epik_input>  (125) 
W0NIMl0xW0NIMl1DKD1PKUMoW0NIM10pKFtDSDNdKVtDQEBIXShbQ0BAXTEyW0NIM10pW0NIMl1bQ0gyXVtDQEBdMyhbQ0gzXSlbQ0BASF0yQyg9TylbQ0gyXUM0PUM1W0NASF0oT0M1PU8pW0NAXTYoW0NIM10pW0NAQEhdKE9bQ0gyXTYpW0NAQEhdKFtPSF0pW0NAXTM0W0NIM10=

>  <s_epik_cmdline>  (125) 
J2VwaWtfcHl0aG9uJywgJy1waHQnLCAnMi4wJywgJy1waCcsICc3LjAnLCAnLXRuJywgJzgnLCAnLW1hJywgJzIwMCcsICctaW1hZScsICc8aW5maWxlLm1hZT4nLCAnLW9tYWUnLCAnPG91dGZpbGUubWFlPic=

>  <r_lp_tautomer_probability>  (125) 
1

>  <r_epik_Ionization_Penalty>  (125) 
5.8049e-06

>  <r_epik_Ionization_Penalty_Charging>  (125) 
0

>  <r_epik_Ionization_Penalty_Neutral>  (125) 
5.8049e-06

>  <r_epik_State_Penalty>  (125) 
-0

>  <r_epik_Charging_Adjusted_Penalty>  (125) 
0

>  <i_epik_Tot_Q>  (125) 
0

>  <i_epik_Tot_abs_Q>  (125) 
0

>  <s_epik_Chemistry_Notes>  (125) 
This compound has an ester and may undergo hydrolysis at high or low pH.

>  <s_lp_Force_Field>  (125) 
OPLS3e

>  <r_lp_Energy>  (125) 
92.2012

>  <b_lp_Chiralities_Consistent>  (125) 
1

>  <s_lp_Variant>  (125) 
37:0-1

>  <s_i_glide_gridfile>  (125) 
pfpi4k_grid

>  <i_i_glide_lignum>  (125) 
10

>  <i_i_glide_rotatable_bonds>  (125) 
1

>  <r_i_docking_score>  (125) 
-2.80828

>  <r_i_glide_ligand_efficiency>  (125) 
-0.0850994

>  <r_i_glide_ligand_efficiency_sa>  (125) 
-0.272959

>  <r_i_glide_ligand_efficiency_ln>  (125) 
-0.624547

>  <r_i_glide_gscore>  (125) 
-2.80828

>  <r_i_glide_lipo>  (125) 
-0.290759

>  <r_i_glide_hbond>  (125) 
-0.051708

>  <r_i_glide_metal>  (125) 
-0

>  <r_i_glide_rewards>  (125) 
-0.486154

>  <r_i_glide_evdw>  (125) 
-19.564

>  <r_i_glide_ecoul>  (125) 
-6.67639

>  <r_i_glide_erotb>  (125) 
0

>  <r_i_glide_esite>  (125) 
0

>  <r_i_glide_emodel>  (125) 
-30.0438

>  <r_i_glide_energy>  (125) 
-26.2404

>  <r_i_glide_einternal>  (125) 
1.3114

>  <r_i_glide_intrahb_reward>  (125) 
-0

>  <i_i_glide_confnum>  (125) 
2

>  <i_i_glide_posenum>  (125) 
34

>  <r_i_glide_eff_state_penalty>  (125) 
0

>  <ligand_id>  (125) 
37

>  <original_smiles>  (125) 
CC1(C)C(=O)CCC2(C)C1CCC1(C)C2C(=O)CC2=C3C(=O)OC3C3(C)COC3C(O)C21C

>  <smiles>  (125) 
[H]OC1([H])C2([H])OC([H])([H])C2(C([H])([H])[H])C2([H])OC(=O)C2=C2C([H])([H])C(=O)C3([H])C4(C([H])([H])[H])C([H])([H])C([H])([H])C(=O)C(C([H])([H])[H])(C([H])([H])[H])C4([H])C([H])([H])C([H])([H])C3(C([H])([H])[H])C21C([H])([H])[H]

$$$$
37:0:1
     RDKit          3D

 69 74  0  0  1  0  0  0  0  0999 V2000
    3.5554   -4.4987   -0.1123 C   0  0  0  0  0  0  0  0  0  0  0  0
    4.4339   -3.3424    0.4392 C   0  0  0  0  0  0  0  0  0  0  0  0
    5.8235   -4.0017    0.6951 C   0  0  0  0  0  0  0  0  0  0  0  0
    4.5832   -2.2611   -0.6358 C   0  0  0  0  0  0  0  0  0  0  0  0
    4.2756   -2.4479   -1.8138 O   0  0  0  0  0  0  0  0  0  0  0  0
    5.2172   -0.9547   -0.2133 C   0  0  0  0  0  0  0  0  0  0  0  0
    4.5026   -0.3749    1.0190 C   0  0  0  0  0  0  0  0  0  0  0  0
    4.4187   -1.3404    2.2323 C   0  0  2  0  0  0  0  0  0  0  0  0
    5.8684   -1.5698    2.7186 C   0  0  0  0  0  0  0  0  0  0  0  0
    3.8184   -2.7120    1.7582 C   0  0  1  0  0  0  0  0  0  0  0  0
    2.2891   -2.5595    1.6943 C   0  0  0  0  0  0  0  0  0  0  0  0
    1.6916   -2.3165    3.0837 C   0  0  0  0  0  0  0  0  0  0  0  0
    2.1204   -1.0154    3.8139 C   0  0  1  0  0  0  0  0  0  0  0  0
    2.0889   -1.4113    5.3177 C   0  0  0  0  0  0  0  0  0  0  0  0
    3.6569   -0.7566    3.5131 C   0  0  2  0  0  0  0  0  0  0  0  0
    4.0322    0.6592    3.9338 C   0  0  0  0  0  0  0  0  0  0  0  0
    5.0286    0.8903    4.6222 O   0  0  0  0  0  0  0  0  0  0  0  0
    3.1567    1.7925    3.4451 C   0  0  0  0  0  0  0  0  0  0  0  0
    1.7620    1.5817    4.0153 C   0  0  0  0  0  0  0  0  0  0  0  0
    1.1809    2.5369    4.7887 C   0  0  0  0  0  0  0  0  0  0  0  0
    1.5650    3.8199    5.2751 C   0  0  0  0  0  0  0  0  0  0  0  0
    2.5857    4.5016    5.1086 O   0  0  0  0  0  0  0  0  0  0  0  0
    0.4273    3.9998    6.0185 O   0  0  0  0  0  0  0  0  0  0  0  0
   -0.1095    2.7832    5.4560 C   0  0  2  0  0  0  0  0  0  0  0  0
   -0.4198    1.6734    6.4808 C   0  0  1  0  0  0  0  0  0  0  0  0
    0.4339    1.7113    7.7459 C   0  0  0  0  0  0  0  0  0  0  0  0
   -1.9240    1.4572    6.7495 C   0  0  0  0  0  0  0  0  0  0  0  0
   -1.9112    0.1342    6.2300 O   0  0  0  0  0  0  0  0  0  0  0  0
   -0.5455    0.2833    5.8343 C   0  0  1  0  0  0  0  0  0  0  0  0
   -0.3432   -0.0072    4.3073 C   0  0  1  0  0  0  0  0  0  0  0  0
   -1.3047    0.8144    3.6710 O   0  0  0  0  0  0  0  0  0  0  0  0
    1.0998    0.2334    3.6183 C   0  0  2  0  0  0  0  0  0  0  0  0
    0.8041    0.3847    2.0928 C   0  0  0  0  0  0  0  0  0  0  0  0
    3.3064   -5.2331    0.6569 H   0  0  0  0  0  0  0  0  0  0  0  0
    4.0587   -5.0250   -0.9222 H   0  0  0  0  0  0  0  0  0  0  0  0
    2.6200   -4.1330   -0.5469 H   0  0  0  0  0  0  0  0  0  0  0  0
    5.9520   -4.2997    1.7373 H   0  0  0  0  0  0  0  0  0  0  0  0
    6.6556   -3.3443    0.4399 H   0  0  0  0  0  0  0  0  0  0  0  0
    5.9884   -4.8969    0.0950 H   0  0  0  0  0  0  0  0  0  0  0  0
    6.2761   -1.1148   -0.0163 H   0  0  0  0  0  0  0  0  0  0  0  0
    5.1658   -0.2571   -1.0434 H   0  0  0  0  0  0  0  0  0  0  0  0
    5.0122    0.5391    1.2952 H   0  0  0  0  0  0  0  0  0  0  0  0
    3.5100   -0.0962    0.6869 H   0  0  0  0  0  0  0  0  0  0  0  0
    5.8977   -2.3660    3.4646 H   0  0  0  0  0  0  0  0  0  0  0  0
    6.3181   -0.6773    3.1564 H   0  0  0  0  0  0  0  0  0  0  0  0
    6.5695   -1.8475    1.9387 H   0  0  0  0  0  0  0  0  0  0  0  0
    3.9950   -3.4410    2.5507 H   0  0  0  0  0  0  0  0  0  0  0  0
    1.9887   -1.8099    0.9666 H   0  0  0  0  0  0  0  0  0  0  0  0
    1.8595   -3.4942    1.3719 H   0  0  0  0  0  0  0  0  0  0  0  0
    0.6081   -2.3622    2.9850 H   0  0  0  0  0  0  0  0  0  0  0  0
    1.9480   -3.1844    3.6878 H   0  0  0  0  0  0  0  0  0  0  0  0
    2.2229   -0.5507    5.9778 H   0  0  0  0  0  0  0  0  0  0  0  0
    2.8660   -2.1315    5.5819 H   0  0  0  0  0  0  0  0  0  0  0  0
    1.1627   -1.9262    5.5764 H   0  0  0  0  0  0  0  0  0  0  0  0
    4.1578   -1.3242    4.2906 H   0  0  0  0  0  0  0  0  0  0  0  0
    3.5899    2.7433    3.7423 H   0  0  0  0  0  0  0  0  0  0  0  0
    3.1314    1.8038    2.3580 H   0  0  0  0  0  0  0  0  0  0  0  0
   -0.9547    2.9804    4.7916 H   0  0  0  0  0  0  0  0  0  0  0  0
    0.1690    0.9165    8.4444 H   0  0  0  0  0  0  0  0  0  0  0  0
    0.3137    2.6530    8.2788 H   0  0  0  0  0  0  0  0  0  0  0  0
    1.4940    1.5976    7.5171 H   0  0  0  0  0  0  0  0  0  0  0  0
   -2.1849    1.5178    7.8157 H   0  0  0  0  0  0  0  0  0  0  0  0
   -2.5659    2.1449    6.1802 H   0  0  0  0  0  0  0  0  0  0  0  0
    0.0369   -0.3965    6.4548 H   0  0  0  0  0  0  0  0  0  0  0  0
   -0.6463   -1.0325    4.1191 H   0  0  0  0  0  0  0  0  0  0  0  0
   -1.2170    0.7160    2.7413 H   0  0  0  0  0  0  0  0  0  0  0  0
    0.2149   -0.4375    1.6934 H   0  0  0  0  0  0  0  0  0  0  0  0
    1.7093    0.4296    1.4959 H   0  0  0  0  0  0  0  0  0  0  0  0
    0.2808    1.3153    1.8475 H   0  0  0  0  0  0  0  0  0  0  0  0
  1  2  1  0
  1 34  1  0
  1 35  1  0
  1 36  1  0
  2 10  1  0
  2  3  1  0
  2  4  1  0
  3 37  1  0
  3 38  1  0
  3 39  1  0
  4  5  2  0
  4  6  1  0
  6  7  1  0
  6 40  1  0
  6 41  1  0
  7  8  1  0
  7 42  1  0
  7 43  1  0
  8 15  1  0
  8  9  1  1
  8 10  1  0
  9 44  1  0
  9 45  1  0
  9 46  1  0
 10 11  1  0
 10 47  1  1
 11 12  1  0
 11 48  1  0
 11 49  1  0
 12 13  1  0
 12 50  1  0
 12 51  1  0
 13 32  1  0
 13 14  1  1
 13 15  1  0
 14 52  1  0
 14 53  1  0
 14 54  1  0
 15 16  1  0
 15 55  1  1
 16 17  2  0
 16 18  1  0
 18 19  1  0
 18 56  1  0
 18 57  1  0
 19 32  1  0
 19 20  2  0
 20 24  1  0
 20 21  1  0
 21 22  2  0
 21 23  1  0
 23 24  1  0
 24 25  1  0
 24 58  1  6
 25 29  1  0
 25 26  1  1
 25 27  1  0
 26 59  1  0
 26 60  1  0
 26 61  1  0
 27 28  1  0
 27 62  1  0
 27 63  1  0
 28 29  1  0
 29 30  1  0
 29 64  1  1
 30 31  1  0
 30 32  1  0
 30 65  1  1
 31 66  1  0
 32 33  1  6
 33 67  1  0
 33 68  1  0
 33 69  1  0
M  END
>  <i_m_ct_stereo_status>  (126) 
1

>  <s_m_source_file>  (126) 
/var/tmp/pbs.5076255.sched01/tmpbrsd6n1o/39u_ie0p0h.sdf

>  <i_m_source_file_index>  (126) 
10

>  <i_lp_mmshare_version>  (126) 
48012

>  <i_f3d_flags>  (126) 
0

>  <s_epik_input>  (126) 
W0NIMl0xW0NIMl1DKD1PKUMoW0NIM10pKFtDSDNdKVtDQEBIXShbQ0BAXTEyW0NIM10pW0NIMl1bQ0gyXVtDQEBdMyhbQ0gzXSlbQ0BASF0yQyg9TylbQ0gyXUM0PUM1W0NASF0oT0M1PU8pW0NAXTYoW0NIM10pW0NAQEhdKE9bQ0gyXTYpW0NAQEhdKFtPSF0pW0NAXTM0W0NIM10=

>  <s_epik_cmdline>  (126) 
J2VwaWtfcHl0aG9uJywgJy1waHQnLCAnMi4wJywgJy1waCcsICc3LjAnLCAnLXRuJywgJzgnLCAnLW1hJywgJzIwMCcsICctaW1hZScsICc8aW5maWxlLm1hZT4nLCAnLW9tYWUnLCAnPG91dGZpbGUubWFlPic=

>  <r_lp_tautomer_probability>  (126) 
1

>  <r_epik_Ionization_Penalty>  (126) 
5.8049e-06

>  <r_epik_Ionization_Penalty_Charging>  (126) 
0

>  <r_epik_Ionization_Penalty_Neutral>  (126) 
5.8049e-06

>  <r_epik_State_Penalty>  (126) 
-0

>  <r_epik_Charging_Adjusted_Penalty>  (126) 
0

>  <i_epik_Tot_Q>  (126) 
0

>  <i_epik_Tot_abs_Q>  (126) 
0

>  <s_epik_Chemistry_Notes>  (126) 
This compound has an ester and may undergo hydrolysis at high or low pH.

>  <s_lp_Force_Field>  (126) 
OPLS3e

>  <r_lp_Energy>  (126) 
92.2012

>  <b_lp_Chiralities_Consistent>  (126) 
1

>  <s_lp_Variant>  (126) 
37:0-1

>  <s_i_glide_gridfile>  (126) 
pfpi4k_grid

>  <i_i_glide_lignum>  (126) 
10

>  <i_i_glide_rotatable_bonds>  (126) 
1

>  <r_i_docking_score>  (126) 
-2.6305

>  <r_i_glide_ligand_efficiency>  (126) 
-0.079712

>  <r_i_glide_ligand_efficiency_sa>  (126) 
-0.255679

>  <r_i_glide_ligand_efficiency_ln>  (126) 
-0.585009

>  <r_i_glide_gscore>  (126) 
-2.6305

>  <r_i_glide_lipo>  (126) 
-0.374171

>  <r_i_glide_hbond>  (126) 
-0.16

>  <r_i_glide_metal>  (126) 
-0

>  <r_i_glide_rewards>  (126) 
-0.296106

>  <r_i_glide_evdw>  (126) 
-23.2531

>  <r_i_glide_ecoul>  (126) 
-4.08182

>  <r_i_glide_erotb>  (126) 
0

>  <r_i_glide_esite>  (126) 
-0.025291

>  <r_i_glide_emodel>  (126) 
-31.1079

>  <r_i_glide_energy>  (126) 
-27.3349

>  <r_i_glide_einternal>  (126) 
0.667876

>  <r_i_glide_intrahb_reward>  (126) 
-0

>  <i_i_glide_confnum>  (126) 
1

>  <i_i_glide_posenum>  (126) 
21

>  <r_i_glide_eff_state_penalty>  (126) 
0

>  <ligand_id>  (126) 
37

>  <original_smiles>  (126) 
CC1(C)C(=O)CCC2(C)C1CCC1(C)C2C(=O)CC2=C3C(=O)OC3C3(C)COC3C(O)C21C

>  <smiles>  (126) 
[H]OC1([H])C2([H])OC([H])([H])C2(C([H])([H])[H])C2([H])OC(=O)C2=C2C([H])([H])C(=O)C3([H])C4(C([H])([H])[H])C([H])([H])C([H])([H])C(=O)C(C([H])([H])[H])(C([H])([H])[H])C4([H])C([H])([H])C([H])([H])C3(C([H])([H])[H])C21C([H])([H])[H]

$$$$
37:0:2
     RDKit          3D

 69 74  0  0  1  0  0  0  0  0999 V2000
    3.1714   -3.2764   -0.3583 C   0  0  0  0  0  0  0  0  0  0  0  0
    4.1572   -2.7425    0.7204 C   0  0  0  0  0  0  0  0  0  0  0  0
    5.0362   -3.9651    1.1112 C   0  0  0  0  0  0  0  0  0  0  0  0
    5.0625   -1.6609    0.0927 C   0  0  0  0  0  0  0  0  0  0  0  0
    5.1473   -1.4765   -1.1251 O   0  0  0  0  0  0  0  0  0  0  0  0
    5.9294   -0.8548    1.0432 C   0  0  0  0  0  0  0  0  0  0  0  0
    5.0870   -0.2519    2.1798 C   0  0  0  0  0  0  0  0  0  0  0  0
    4.2432   -1.2776    2.9858 C   0  0  2  0  0  0  0  0  0  0  0  0
    5.2434   -2.2094    3.7313 C   0  0  0  0  0  0  0  0  0  0  0  0
    3.3899   -2.1331    1.9759 C   0  0  1  0  0  0  0  0  0  0  0  0
    2.1483   -1.3143    1.5860 C   0  0  0  0  0  0  0  0  0  0  0  0
    1.2228   -1.0669    2.7769 C   0  0  0  0  0  0  0  0  0  0  0  0
    1.8105   -0.2373    3.9531 C   0  0  1  0  0  0  0  0  0  0  0  0
    1.1066   -0.8254    5.2069 C   0  0  0  0  0  0  0  0  0  0  0  0
    3.3429   -0.6212    4.1372 C   0  0  2  0  0  0  0  0  0  0  0  0
    4.0549    0.4013    5.0280 C   0  0  0  0  0  0  0  0  0  0  0  0
    4.7715    0.0640    5.9722 O   0  0  0  0  0  0  0  0  0  0  0  0
    3.8402    1.8621    4.7041 C   0  0  0  0  0  0  0  0  0  0  0  0
    2.3558    2.1789    4.8151 C   0  0  0  0  0  0  0  0  0  0  0  0
    1.9305    3.1474    5.6658 C   0  0  0  0  0  0  0  0  0  0  0  0
    2.5581    4.0315    6.6055 C   0  0  0  0  0  0  0  0  0  0  0  0
    3.7317    4.2381    6.9168 O   0  0  0  0  0  0  0  0  0  0  0  0
    1.3765    4.5623    7.0569 O   0  0  0  0  0  0  0  0  0  0  0  0
    0.6507    3.8025    6.0307 C   0  0  2  0  0  0  0  0  0  0  0  0
   -0.3764    2.7963    6.5604 C   0  0  1  0  0  0  0  0  0  0  0  0
   -0.0594    2.2436    7.9605 C   0  0  0  0  0  0  0  0  0  0  0  0
   -1.8361    3.2206    6.3800 C   0  0  0  0  0  0  0  0  0  0  0  0
   -2.1241    2.1216    5.4832 O   0  0  0  0  0  0  0  0  0  0  0  0
   -0.7333    1.7199    5.5244 C   0  0  1  0  0  0  0  0  0  0  0  0
   -0.1308    1.6495    4.0778 C   0  0  1  0  0  0  0  0  0  0  0  0
   -0.4755    2.8889    3.4661 O   0  0  0  0  0  0  0  0  0  0  0  0
    1.4408    1.3487    3.8684 C   0  0  2  0  0  0  0  0  0  0  0  0
    1.7852    1.8620    2.4396 C   0  0  0  0  0  0  0  0  0  0  0  0
    2.4263   -3.9465    0.0750 H   0  0  0  0  0  0  0  0  0  0  0  0
    3.6811   -3.8311   -1.1502 H   0  0  0  0  0  0  0  0  0  0  0  0
    2.6408   -2.4712   -0.8703 H   0  0  0  0  0  0  0  0  0  0  0  0
    4.6663   -4.4614    2.0084 H   0  0  0  0  0  0  0  0  0  0  0  0
    6.0791   -3.7078    1.2846 H   0  0  0  0  0  0  0  0  0  0  0  0
    5.0677   -4.7277    0.3308 H   0  0  0  0  0  0  0  0  0  0  0  0
    6.7216   -1.4929    1.4319 H   0  0  0  0  0  0  0  0  0  0  0  0
    6.4289   -0.0648    0.4831 H   0  0  0  0  0  0  0  0  0  0  0  0
    5.7552    0.2992    2.8448 H   0  0  0  0  0  0  0  0  0  0  0  0
    4.4405    0.4799    1.7106 H   0  0  0  0  0  0  0  0  0  0  0  0
    4.7424   -3.0624    4.1954 H   0  0  0  0  0  0  0  0  0  0  0  0
    5.7920   -1.6938    4.5184 H   0  0  0  0  0  0  0  0  0  0  0  0
    6.0174   -2.6145    3.0903 H   0  0  0  0  0  0  0  0  0  0  0  0
    2.9977   -2.9876    2.5269 H   0  0  0  0  0  0  0  0  0  0  0  0
    2.4070   -0.3973    1.0551 H   0  0  0  0  0  0  0  0  0  0  0  0
    1.5369   -1.8812    0.8965 H   0  0  0  0  0  0  0  0  0  0  0  0
    0.3067   -0.6227    2.4044 H   0  0  0  0  0  0  0  0  0  0  0  0
    0.9264   -2.0567    3.1345 H   0  0  0  0  0  0  0  0  0  0  0  0
    1.2966   -0.2361    6.1055 H   0  0  0  0  0  0  0  0  0  0  0  0
    1.4240   -1.8471    5.4252 H   0  0  0  0  0  0  0  0  0  0  0  0
    0.0311   -0.9197    5.0534 H   0  0  0  0  0  0  0  0  0  0  0  0
    3.2957   -1.4714    4.8147 H   0  0  0  0  0  0  0  0  0  0  0  0
    4.4529    2.4671    5.3714 H   0  0  0  0  0  0  0  0  0  0  0  0
    4.1995    2.0669    3.6987 H   0  0  0  0  0  0  0  0  0  0  0  0
    0.2346    4.4717    5.2728 H   0  0  0  0  0  0  0  0  0  0  0  0
   -0.8210    1.5413    8.2980 H   0  0  0  0  0  0  0  0  0  0  0  0
   -0.0137    3.0396    8.7009 H   0  0  0  0  0  0  0  0  0  0  0  0
    0.8961    1.7232    7.9797 H   0  0  0  0  0  0  0  0  0  0  0  0
   -2.4280    3.1900    7.2985 H   0  0  0  0  0  0  0  0  0  0  0  0
   -1.9484    4.1836    5.8804 H   0  0  0  0  0  0  0  0  0  0  0  0
   -0.7093    0.7655    6.0300 H   0  0  0  0  0  0  0  0  0  0  0  0
   -0.7009    0.8997    3.5290 H   0  0  0  0  0  0  0  0  0  0  0  0
   -0.2073    2.8758    2.5557 H   0  0  0  0  0  0  0  0  0  0  0  0
    1.1085    1.4671    1.6802 H   0  0  0  0  0  0  0  0  0  0  0  0
    2.7923    1.6118    2.1390 H   0  0  0  0  0  0  0  0  0  0  0  0
    1.7394    2.9526    2.3676 H   0  0  0  0  0  0  0  0  0  0  0  0
  1  2  1  0
  1 34  1  0
  1 35  1  0
  1 36  1  0
  2 10  1  0
  2  3  1  0
  2  4  1  0
  3 37  1  0
  3 38  1  0
  3 39  1  0
  4  5  2  0
  4  6  1  0
  6  7  1  0
  6 40  1  0
  6 41  1  0
  7  8  1  0
  7 42  1  0
  7 43  1  0
  8 15  1  0
  8  9  1  1
  8 10  1  0
  9 44  1  0
  9 45  1  0
  9 46  1  0
 10 11  1  0
 10 47  1  1
 11 12  1  0
 11 48  1  0
 11 49  1  0
 12 13  1  0
 12 50  1  0
 12 51  1  0
 13 32  1  0
 13 14  1  1
 13 15  1  0
 14 52  1  0
 14 53  1  0
 14 54  1  0
 15 16  1  0
 15 55  1  1
 16 17  2  0
 16 18  1  0
 18 19  1  0
 18 56  1  0
 18 57  1  0
 19 32  1  0
 19 20  2  0
 20 24  1  0
 20 21  1  0
 21 22  2  0
 21 23  1  0
 23 24  1  0
 24 25  1  0
 24 58  1  6
 25 29  1  0
 25 26  1  1
 25 27  1  0
 26 59  1  0
 26 60  1  0
 26 61  1  0
 27 28  1  0
 27 62  1  0
 27 63  1  0
 28 29  1  0
 29 30  1  0
 29 64  1  1
 30 31  1  0
 30 32  1  0
 30 65  1  6
 31 66  1  0
 32 33  1  6
 33 67  1  0
 33 68  1  0
 33 69  1  0
M  END
>  <i_m_ct_stereo_status>  (127) 
1

>  <s_m_source_file>  (127) 
/var/tmp/pbs.5076255.sched01/tmpbrsd6n1o/39u_ie0p0h.sdf

>  <i_m_source_file_index>  (127) 
10

>  <i_lp_mmshare_version>  (127) 
48012

>  <i_f3d_flags>  (127) 
0

>  <s_epik_input>  (127) 
W0NIMl0xW0NIMl1DKD1PKUMoW0NIM10pKFtDSDNdKVtDQEBIXShbQ0BAXTEyW0NIM10pW0NIMl1bQ0gyXVtDQEBdMyhbQ0gzXSlbQ0BASF0yQyg9TylbQ0gyXUM0PUM1W0NASF0oT0M1PU8pW0NAXTYoW0NIM10pW0NAQEhdKE9bQ0gyXTYpW0NAQEhdKFtPSF0pW0NAXTM0W0NIM10=

>  <s_epik_cmdline>  (127) 
J2VwaWtfcHl0aG9uJywgJy1waHQnLCAnMi4wJywgJy1waCcsICc3LjAnLCAnLXRuJywgJzgnLCAnLW1hJywgJzIwMCcsICctaW1hZScsICc8aW5maWxlLm1hZT4nLCAnLW9tYWUnLCAnPG91dGZpbGUubWFlPic=

>  <r_lp_tautomer_probability>  (127) 
1

>  <r_epik_Ionization_Penalty>  (127) 
5.8049e-06

>  <r_epik_Ionization_Penalty_Charging>  (127) 
0

>  <r_epik_Ionization_Penalty_Neutral>  (127) 
5.8049e-06

>  <r_epik_State_Penalty>  (127) 
-0

>  <r_epik_Charging_Adjusted_Penalty>  (127) 
0

>  <i_epik_Tot_Q>  (127) 
0

>  <i_epik_Tot_abs_Q>  (127) 
0

>  <s_epik_Chemistry_Notes>  (127) 
This compound has an ester and may undergo hydrolysis at high or low pH.

>  <s_lp_Force_Field>  (127) 
OPLS3e

>  <r_lp_Energy>  (127) 
92.2012

>  <b_lp_Chiralities_Consistent>  (127) 
1

>  <s_lp_Variant>  (127) 
37:0-1

>  <s_i_glide_gridfile>  (127) 
pfpi4k_grid

>  <i_i_glide_lignum>  (127) 
10

>  <i_i_glide_rotatable_bonds>  (127) 
1

>  <r_i_docking_score>  (127) 
-2.33418

>  <r_i_glide_ligand_efficiency>  (127) 
-0.0707329

>  <r_i_glide_ligand_efficiency_sa>  (127) 
-0.226878

>  <r_i_glide_ligand_efficiency_ln>  (127) 
-0.519111

>  <r_i_glide_gscore>  (127) 
-2.33418

>  <r_i_glide_lipo>  (127) 
-0.445632

>  <r_i_glide_hbond>  (127) 
0

>  <r_i_glide_metal>  (127) 
-0

>  <r_i_glide_rewards>  (127) 
-0.310811

>  <r_i_glide_evdw>  (127) 
-21.8259

>  <r_i_glide_ecoul>  (127) 
-3.24299

>  <r_i_glide_erotb>  (127) 
0

>  <r_i_glide_esite>  (127) 
0

>  <r_i_glide_emodel>  (127) 
-28.6223

>  <r_i_glide_energy>  (127) 
-25.0689

>  <r_i_glide_einternal>  (127) 
0.401429

>  <r_i_glide_intrahb_reward>  (127) 
-0

>  <i_i_glide_confnum>  (127) 
2

>  <i_i_glide_posenum>  (127) 
16

>  <r_i_glide_eff_state_penalty>  (127) 
0

>  <ligand_id>  (127) 
37

>  <original_smiles>  (127) 
CC1(C)C(=O)CCC2(C)C1CCC1(C)C2C(=O)CC2=C3C(=O)OC3C3(C)COC3C(O)C21C

>  <smiles>  (127) 
[H]OC1([H])C2([H])OC([H])([H])C2(C([H])([H])[H])C2([H])OC(=O)C2=C2C([H])([H])C(=O)C3([H])C4(C([H])([H])[H])C([H])([H])C([H])([H])C(=O)C(C([H])([H])[H])(C([H])([H])[H])C4([H])C([H])([H])C([H])([H])C3(C([H])([H])[H])C21C([H])([H])[H]

$$$$
38:0:0
     RDKit          3D

 46 50  0  0  1  0  0  0  0  0999 V2000
   -6.1821   -5.8788   -4.4221 C   0  0  0  0  0  0  0  0  0  0  0  0
   -6.0776   -7.0693   -5.3754 C   0  0  2  0  0  0  0  0  0  0  0  0
   -4.7750   -7.0674   -5.9215 O   0  0  0  0  0  0  0  0  0  0  0  0
   -7.1942   -7.1669   -6.4420 C   0  0  2  0  0  0  0  0  0  0  0  0
   -6.8717   -8.1611   -7.6016 C   0  0  1  0  0  0  0  0  0  0  0  0
   -6.8360   -9.7183   -7.3984 C   0  0  1  0  0  0  0  0  0  0  0  0
   -7.9529  -10.3471   -6.5398 C   0  0  0  0  0  0  0  0  0  0  0  0
   -9.0407  -10.8442   -7.5183 C   0  0  0  0  0  0  0  0  0  0  0  0
   -8.6824  -10.1586   -8.8478 C   0  0  2  0  0  0  0  0  0  0  0  0
   -7.1508  -10.3554   -8.7593 C   0  0  0  0  0  0  0  0  0  0  0  0
   -9.0808   -8.6466   -8.7662 C   0  0  2  0  0  0  0  0  0  0  0  0
  -10.1566   -8.0479   -9.7288 C   0  0  0  0  0  0  0  0  0  0  0  0
  -10.4370   -6.5609   -9.3655 C   0  0  0  0  0  0  0  0  0  0  0  0
  -11.1935   -5.8376  -10.0074 O   0  0  0  0  0  0  0  0  0  0  0  0
   -9.6466   -6.0716   -8.1487 C   0  0  2  0  0  0  0  0  0  0  0  0
   -9.6339   -4.6788   -7.5506 C   0  0  0  0  0  0  0  0  0  0  0  0
   -8.4746   -4.8938   -6.5287 C   0  0  0  0  0  0  0  0  0  0  0  0
   -7.5290   -5.8856   -7.1418 N   0  0  2  0  0  0  0  0  0  0  0  0
   -8.1674   -6.2880   -8.4017 C   0  0  1  0  0  0  0  0  0  0  0  0
   -7.8299   -7.7402   -8.7115 C   0  0  1  0  0  0  0  0  0  0  0  0
   -7.1557   -5.8304   -3.9387 H   0  0  0  0  0  0  0  0  0  0  0  0
   -5.9983   -4.9302   -4.9308 H   0  0  0  0  0  0  0  0  0  0  0  0
   -5.4394   -5.9893   -3.6368 H   0  0  0  0  0  0  0  0  0  0  0  0
   -6.1403   -7.9771   -4.7783 H   0  0  0  0  0  0  0  0  0  0  0  0
   -4.5989   -7.9312   -6.2670 H   0  0  0  0  0  0  0  0  0  0  0  0
   -8.1156   -7.4681   -5.9495 H   0  0  0  0  0  0  0  0  0  0  0  0
   -5.8899   -7.8981   -8.0008 H   0  0  0  0  0  0  0  0  0  0  0  0
   -5.8532  -10.0206   -7.0305 H   0  0  0  0  0  0  0  0  0  0  0  0
   -7.5661  -11.1837   -5.9559 H   0  0  0  0  0  0  0  0  0  0  0  0
   -8.3554   -9.6274   -5.8448 H   0  0  0  0  0  0  0  0  0  0  0  0
   -8.9616  -11.9254   -7.6342 H   0  0  0  0  0  0  0  0  0  0  0  0
  -10.0545  -10.6349   -7.1727 H   0  0  0  0  0  0  0  0  0  0  0  0
   -9.1243  -10.6557   -9.7126 H   0  0  0  0  0  0  0  0  0  0  0  0
   -6.5903   -9.8912   -9.5650 H   0  0  0  0  0  0  0  0  0  0  0  0
   -6.8959  -11.4168   -8.7613 H   0  0  0  0  0  0  0  0  0  0  0  0
   -9.5501   -8.5690   -7.7865 H   0  0  0  0  0  0  0  0  0  0  0  0
   -9.8281   -8.1033  -10.7657 H   0  0  0  0  0  0  0  0  0  0  0  0
  -11.0847   -8.6106   -9.6480 H   0  0  0  0  0  0  0  0  0  0  0  0
   -9.9967   -6.6866   -7.3241 H   0  0  0  0  0  0  0  0  0  0  0  0
   -9.3888   -3.9218   -8.3021 H   0  0  0  0  0  0  0  0  0  0  0  0
  -10.5778   -4.4118   -7.0692 H   0  0  0  0  0  0  0  0  0  0  0  0
   -7.9637   -3.9531   -6.3243 H   0  0  0  0  0  0  0  0  0  0  0  0
   -8.8703   -5.2679   -5.5821 H   0  0  0  0  0  0  0  0  0  0  0  0
   -7.8123   -5.6353   -9.2039 H   0  0  0  0  0  0  0  0  0  0  0  0
   -7.3240   -7.7737   -9.6800 H   0  0  0  0  0  0  0  0  0  0  0  0
   -6.6503   -5.4384   -7.3650 H   0  0  0  0  0  0  0  0  0  0  0  0
  1  2  1  0
  1 21  1  0
  1 22  1  0
  1 23  1  0
  2  3  1  0
  2  4  1  0
  2 24  1  1
  3 25  1  0
  4 18  1  0
  4  5  1  0
  4 26  1  1
  5 20  1  0
  5  6  1  0
  5 27  1  6
  6 10  1  0
  6  7  1  0
  6 28  1  1
  7  8  1  0
  7 29  1  0
  7 30  1  0
  8  9  1  0
  8 31  1  0
  8 32  1  0
  9 10  1  0
  9 11  1  0
  9 33  1  6
 10 34  1  0
 10 35  1  0
 11 20  1  0
 11 12  1  0
 11 36  1  1
 12 13  1  0
 12 37  1  0
 12 38  1  0
 13 14  2  0
 13 15  1  0
 15 19  1  0
 15 16  1  0
 15 39  1  1
 16 17  1  0
 16 40  1  0
 16 41  1  0
 17 18  1  0
 17 42  1  0
 17 43  1  0
 18 19  1  0
 18 46  1  6
 19 20  1  0
 19 44  1  6
 20 45  1  6
M  CHG  1  18   1
M  END
>  <i_m_ct_stereo_status>  (128) 
1

>  <s_m_source_file>  (128) 
/var/tmp/pbs.5076255.sched01/tmpbrsd6n1o/39u_ie0p0h.sdf

>  <i_m_source_file_index>  (128) 
11

>  <i_lp_mmshare_version>  (128) 
48012

>  <i_f3d_flags>  (128) 
0

>  <s_epik_input>  (128) 
W0NIM11bQ0BIXShbT0hdKVtDQEhdMU4yW0NIMl1bQ0gyXVtDQEBIXShDKD1PKVtDSDJdMylbQ0BASF0yW0NAQEhdNFtDQEBIXTNbQ0BASF0oW0NIMl01KVtDSDJdW0NIMl1bQ0BASF01W0NASF0xNA==

>  <s_epik_cmdline>  (128) 
J2VwaWtfcHl0aG9uJywgJy1waHQnLCAnMi4wJywgJy1waCcsICc3LjAnLCAnLXRuJywgJzgnLCAnLW1hJywgJzIwMCcsICctaW1hZScsICc8aW5maWxlLm1hZT4nLCAnLW9tYWUnLCAnPG91dGZpbGUubWFlPic=

>  <r_lp_tautomer_probability>  (128) 
1

>  <r_epik_Ionization_Penalty>  (128) 
0.000246194

>  <r_epik_Ionization_Penalty_Charging>  (128) 
0.000246183

>  <r_epik_Ionization_Penalty_Neutral>  (128) 
1.12318e-08

>  <r_epik_State_Penalty>  (128) 
-0

>  <r_epik_Charging_Adjusted_Penalty>  (128) 
0.000246183

>  <i_epik_Tot_Q>  (128) 
1

>  <i_epik_Tot_abs_Q>  (128) 
1

>  <s_lp_Force_Field>  (128) 
OPLS3e

>  <r_lp_Energy>  (128) 
57.3353

>  <b_lp_Chiralities_Consistent>  (128) 
1

>  <s_lp_Variant>  (128) 
38:0-1

>  <s_i_glide_gridfile>  (128) 
pfpi4k_grid

>  <i_i_glide_lignum>  (128) 
11

>  <i_i_glide_rotatable_bonds>  (128) 
2

>  <r_i_docking_score>  (128) 
-5.77189

>  <r_i_glide_ligand_efficiency>  (128) 
-0.288595

>  <r_i_glide_ligand_efficiency_sa>  (128) 
-0.783366

>  <r_i_glide_ligand_efficiency_ln>  (128) 
-1.44451

>  <r_i_glide_gscore>  (128) 
-5.77189

>  <r_i_glide_lipo>  (128) 
-2.21668

>  <r_i_glide_hbond>  (128) 
-0.0206207

>  <r_i_glide_metal>  (128) 
-0

>  <r_i_glide_rewards>  (128) 
-1.98108

>  <r_i_glide_evdw>  (128) 
-25.5484

>  <r_i_glide_ecoul>  (128) 
-1.68088

>  <r_i_glide_erotb>  (128) 
0

>  <r_i_glide_esite>  (128) 
-0.0239535

>  <r_i_glide_emodel>  (128) 
-34.5048

>  <r_i_glide_energy>  (128) 
-27.2292

>  <r_i_glide_einternal>  (128) 
2.87964

>  <r_i_glide_intrahb_reward>  (128) 
-0

>  <i_i_glide_confnum>  (128) 
1

>  <i_i_glide_posenum>  (128) 
5

>  <r_i_glide_eff_state_penalty>  (128) 
0

>  <ligand_id>  (128) 
38

>  <original_smiles>  (128) 
CC(O)C1C2C3CCC(C3)C3CC(=O)C4CCN1C4C32

>  <smiles>  (128) 
[H]OC([H])(C([H])([H])[H])C1([H])C2([H])C3([H])C([H])([H])C([H])([H])C([H])(C3([H])[H])C3([H])C([H])([H])C(=O)C4([H])C([H])([H])C([H])([H])[N+]1([H])C4([H])C32[H]

$$$$
38:0:1
     RDKit          3D

 46 50  0  0  1  0  0  0  0  0999 V2000
   -6.0346   -6.7131   -4.7323 C   0  0  0  0  0  0  0  0  0  0  0  0
   -6.1035   -7.8626   -5.7412 C   0  0  2  0  0  0  0  0  0  0  0  0
   -4.8409   -7.9428   -6.3509 O   0  0  0  0  0  0  0  0  0  0  0  0
   -7.2544   -7.7899   -6.7717 C   0  0  2  0  0  0  0  0  0  0  0  0
   -7.1514   -8.8267   -7.9271 C   0  0  1  0  0  0  0  0  0  0  0  0
   -7.3671  -10.3628   -7.7050 C   0  0  1  0  0  0  0  0  0  0  0  0
   -8.5299  -10.7925   -6.7735 C   0  0  0  0  0  0  0  0  0  0  0  0
   -9.7231  -11.1222   -7.6991 C   0  0  0  0  0  0  0  0  0  0  0  0
   -9.3262  -10.5145   -9.0564 C   0  0  2  0  0  0  0  0  0  0  0  0
   -7.8428  -10.9480   -9.0524 C   0  0  0  0  0  0  0  0  0  0  0  0
   -9.4721   -8.9591   -8.9770 C   0  0  2  0  0  0  0  0  0  0  0  0
  -10.4846   -8.1985   -9.8934 C   0  0  0  0  0  0  0  0  0  0  0  0
  -10.5052   -6.6878   -9.5270 C   0  0  0  0  0  0  0  0  0  0  0  0
  -11.1631   -5.8479  -10.1386 O   0  0  0  0  0  0  0  0  0  0  0  0
   -9.5898   -6.3328   -8.3570 C   0  0  2  0  0  0  0  0  0  0  0  0
   -9.3282   -4.9589   -7.7775 C   0  0  0  0  0  0  0  0  0  0  0  0
   -8.1711   -5.3490   -6.8117 C   0  0  0  0  0  0  0  0  0  0  0  0
   -7.4190   -6.4771   -7.4653 N   0  0  2  0  0  0  0  0  0  0  0  0
   -8.1789   -6.7784   -8.6844 C   0  0  1  0  0  0  0  0  0  0  0  0
   -8.0888   -8.2642   -8.9921 C   0  0  1  0  0  0  0  0  0  0  0  0
   -6.9855   -6.5919   -4.2194 H   0  0  0  0  0  0  0  0  0  0  0  0
   -5.7791   -5.7662   -5.2081 H   0  0  0  0  0  0  0  0  0  0  0  0
   -5.2854   -6.9087   -3.9682 H   0  0  0  0  0  0  0  0  0  0  0  0
   -6.2411   -8.7927   -5.1901 H   0  0  0  0  0  0  0  0  0  0  0  0
   -4.2246   -8.2489   -5.6978 H   0  0  0  0  0  0  0  0  0  0  0  0
   -8.1824   -7.9614   -6.2532 H   0  0  0  0  0  0  0  0  0  0  0  0
   -6.1553   -8.7294   -8.3601 H   0  0  0  0  0  0  0  0  0  0  0  0
   -6.4305  -10.8166   -7.3747 H   0  0  0  0  0  0  0  0  0  0  0  0
   -8.2559  -11.6838   -6.2089 H   0  0  0  0  0  0  0  0  0  0  0  0
   -8.7819  -10.0310   -6.0424 H   0  0  0  0  0  0  0  0  0  0  0  0
   -9.8188  -12.2026   -7.8045 H   0  0  0  0  0  0  0  0  0  0  0  0
  -10.6767  -10.7580   -7.3147 H   0  0  0  0  0  0  0  0  0  0  0  0
   -9.8855  -10.9384   -9.8911 H   0  0  0  0  0  0  0  0  0  0  0  0
   -7.2725  -10.5945   -9.9142 H   0  0  0  0  0  0  0  0  0  0  0  0
   -7.7594  -12.0358   -9.0463 H   0  0  0  0  0  0  0  0  0  0  0  0
   -9.8783   -8.8063   -7.9781 H   0  0  0  0  0  0  0  0  0  0  0  0
  -10.2193   -8.3100  -10.9444 H   0  0  0  0  0  0  0  0  0  0  0  0
  -11.4856   -8.6064   -9.7645 H   0  0  0  0  0  0  0  0  0  0  0  0
   -9.9953   -6.8894   -7.5153 H   0  0  0  0  0  0  0  0  0  0  0  0
   -8.9989   -4.2593   -8.5515 H   0  0  0  0  0  0  0  0  0  0  0  0
  -10.1935   -4.5380   -7.2603 H   0  0  0  0  0  0  0  0  0  0  0  0
   -7.5094   -4.4999   -6.6411 H   0  0  0  0  0  0  0  0  0  0  0  0
   -8.5759   -5.6541   -5.8438 H   0  0  0  0  0  0  0  0  0  0  0  0
   -7.7728   -6.1937   -9.5119 H   0  0  0  0  0  0  0  0  0  0  0  0
   -7.6440   -8.3815   -9.9820 H   0  0  0  0  0  0  0  0  0  0  0  0
   -6.4908   -6.1760   -7.7320 H   0  0  0  0  0  0  0  0  0  0  0  0
  1  2  1  0
  1 21  1  0
  1 22  1  0
  1 23  1  0
  2  3  1  0
  2  4  1  0
  2 24  1  1
  3 25  1  0
  4 18  1  0
  4  5  1  0
  4 26  1  1
  5 20  1  0
  5  6  1  0
  5 27  1  6
  6 10  1  0
  6  7  1  0
  6 28  1  1
  7  8  1  0
  7 29  1  0
  7 30  1  0
  8  9  1  0
  8 31  1  0
  8 32  1  0
  9 10  1  0
  9 11  1  0
  9 33  1  6
 10 34  1  0
 10 35  1  0
 11 20  1  0
 11 12  1  0
 11 36  1  1
 12 13  1  0
 12 37  1  0
 12 38  1  0
 13 14  2  0
 13 15  1  0
 15 19  1  0
 15 16  1  0
 15 39  1  1
 16 17  1  0
 16 40  1  0
 16 41  1  0
 17 18  1  0
 17 42  1  0
 17 43  1  0
 18 19  1  0
 18 46  1  6
 19 20  1  0
 19 44  1  6
 20 45  1  6
M  CHG  1  18   1
M  END
>  <i_m_ct_stereo_status>  (129) 
1

>  <s_m_source_file>  (129) 
/var/tmp/pbs.5076255.sched01/tmpbrsd6n1o/39u_ie0p0h.sdf

>  <i_m_source_file_index>  (129) 
11

>  <i_lp_mmshare_version>  (129) 
48012

>  <i_f3d_flags>  (129) 
0

>  <s_epik_input>  (129) 
W0NIM11bQ0BIXShbT0hdKVtDQEhdMU4yW0NIMl1bQ0gyXVtDQEBIXShDKD1PKVtDSDJdMylbQ0BASF0yW0NAQEhdNFtDQEBIXTNbQ0BASF0oW0NIMl01KVtDSDJdW0NIMl1bQ0BASF01W0NASF0xNA==

>  <s_epik_cmdline>  (129) 
J2VwaWtfcHl0aG9uJywgJy1waHQnLCAnMi4wJywgJy1waCcsICc3LjAnLCAnLXRuJywgJzgnLCAnLW1hJywgJzIwMCcsICctaW1hZScsICc8aW5maWxlLm1hZT4nLCAnLW9tYWUnLCAnPG91dGZpbGUubWFlPic=

>  <r_lp_tautomer_probability>  (129) 
1

>  <r_epik_Ionization_Penalty>  (129) 
0.000246194

>  <r_epik_Ionization_Penalty_Charging>  (129) 
0.000246183

>  <r_epik_Ionization_Penalty_Neutral>  (129) 
1.12318e-08

>  <r_epik_State_Penalty>  (129) 
-0

>  <r_epik_Charging_Adjusted_Penalty>  (129) 
0.000246183

>  <i_epik_Tot_Q>  (129) 
1

>  <i_epik_Tot_abs_Q>  (129) 
1

>  <s_lp_Force_Field>  (129) 
OPLS3e

>  <r_lp_Energy>  (129) 
57.3353

>  <b_lp_Chiralities_Consistent>  (129) 
1

>  <s_lp_Variant>  (129) 
38:0-1

>  <s_i_glide_gridfile>  (129) 
pfpi4k_grid

>  <i_i_glide_lignum>  (129) 
11

>  <i_i_glide_rotatable_bonds>  (129) 
2

>  <r_i_docking_score>  (129) 
-5.55292

>  <r_i_glide_ligand_efficiency>  (129) 
-0.277646

>  <r_i_glide_ligand_efficiency_sa>  (129) 
-0.753647

>  <r_i_glide_ligand_efficiency_ln>  (129) 
-1.38971

>  <r_i_glide_gscore>  (129) 
-5.55292

>  <r_i_glide_lipo>  (129) 
-1.95113

>  <r_i_glide_hbond>  (129) 
-0.00590075

>  <r_i_glide_metal>  (129) 
-0

>  <r_i_glide_rewards>  (129) 
-1.97459

>  <r_i_glide_evdw>  (129) 
-26.5614

>  <r_i_glide_ecoul>  (129) 
-1.79666

>  <r_i_glide_erotb>  (129) 
0

>  <r_i_glide_esite>  (129) 
-0.0237361

>  <r_i_glide_emodel>  (129) 
-35.5071

>  <r_i_glide_energy>  (129) 
-28.3581

>  <r_i_glide_einternal>  (129) 
2.40134

>  <r_i_glide_intrahb_reward>  (129) 
-0

>  <i_i_glide_confnum>  (129) 
2

>  <i_i_glide_posenum>  (129) 
38

>  <r_i_glide_eff_state_penalty>  (129) 
0

>  <ligand_id>  (129) 
38

>  <original_smiles>  (129) 
CC(O)C1C2C3CCC(C3)C3CC(=O)C4CCN1C4C32

>  <smiles>  (129) 
[H]OC([H])(C([H])([H])[H])C1([H])C2([H])C3([H])C([H])([H])C([H])([H])C([H])(C3([H])[H])C3([H])C([H])([H])C(=O)C4([H])C([H])([H])C([H])([H])[N+]1([H])C4([H])C32[H]

$$$$
38:0:2
     RDKit          3D

 46 50  0  0  1  0  0  0  0  0999 V2000
   -7.8530   -5.1143   -6.8090 C   0  0  0  0  0  0  0  0  0  0  0  0
   -8.7185   -5.5000   -8.0379 C   0  0  2  0  0  0  0  0  0  0  0  0
   -9.9047   -4.7324   -7.9438 O   0  0  0  0  0  0  0  0  0  0  0  0
   -9.0483   -7.0110   -8.0880 C   0  0  2  0  0  0  0  0  0  0  0  0
   -7.8517   -7.8922   -8.5428 C   0  0  1  0  0  0  0  0  0  0  0  0
   -6.5969   -8.1665   -7.6413 C   0  0  1  0  0  0  0  0  0  0  0  0
   -6.8444   -8.3791   -6.1396 C   0  0  0  0  0  0  0  0  0  0  0  0
   -6.8503   -9.9038   -5.9354 C   0  0  0  0  0  0  0  0  0  0  0  0
   -6.9847  -10.4886   -7.3458 C   0  0  2  0  0  0  0  0  0  0  0  0
   -6.0179   -9.5244   -8.0340 C   0  0  0  0  0  0  0  0  0  0  0  0
   -8.4462  -10.2803   -7.8421 C   0  0  2  0  0  0  0  0  0  0  0  0
   -9.3401  -11.5081   -8.1862 C   0  0  0  0  0  0  0  0  0  0  0  0
  -10.7781  -11.0336   -8.5215 C   0  0  0  0  0  0  0  0  0  0  0  0
  -11.6845  -11.7992   -8.8370 O   0  0  0  0  0  0  0  0  0  0  0  0
  -10.9568   -9.5174   -8.4165 C   0  0  2  0  0  0  0  0  0  0  0  0
  -12.2033   -8.7263   -8.7323 C   0  0  0  0  0  0  0  0  0  0  0  0
  -11.5809   -7.3017   -8.5937 C   0  0  0  0  0  0  0  0  0  0  0  0
  -10.1475   -7.3917   -9.0300 N   0  0  2  0  0  0  0  0  0  0  0  0
   -9.9446   -8.8179   -9.3054 C   0  0  1  0  0  0  0  0  0  0  0  0
   -8.5201   -9.2045   -8.9595 C   0  0  1  0  0  0  0  0  0  0  0  0
   -6.9025   -5.6496   -6.7735 H   0  0  0  0  0  0  0  0  0  0  0  0
   -8.3642   -5.3180   -5.8612 H   0  0  0  0  0  0  0  0  0  0  0  0
   -7.5835   -4.0523   -6.8281 H   0  0  0  0  0  0  0  0  0  0  0  0
   -8.2012   -5.1986   -8.9522 H   0  0  0  0  0  0  0  0  0  0  0  0
  -10.3218   -4.9084   -7.1129 H   0  0  0  0  0  0  0  0  0  0  0  0
   -9.3801   -7.3468   -7.1289 H   0  0  0  0  0  0  0  0  0  0  0  0
   -7.4748   -7.4462   -9.4643 H   0  0  0  0  0  0  0  0  0  0  0  0
   -5.8354   -7.4094   -7.7859 H   0  0  0  0  0  0  0  0  0  0  0  0
   -6.0455   -7.9358   -5.5449 H   0  0  0  0  0  0  0  0  0  0  0  0
   -7.7736   -7.9159   -5.8283 H   0  0  0  0  0  0  0  0  0  0  0  0
   -5.8881  -10.2140   -5.5289 H   0  0  0  0  0  0  0  0  0  0  0  0
   -7.6319  -10.2293   -5.2492 H   0  0  0  0  0  0  0  0  0  0  0  0
   -6.6543  -11.5241   -7.4159 H   0  0  0  0  0  0  0  0  0  0  0  0
   -5.9600   -9.6569   -9.1136 H   0  0  0  0  0  0  0  0  0  0  0  0
   -5.0084   -9.6233   -7.6442 H   0  0  0  0  0  0  0  0  0  0  0  0
   -8.9361   -9.8471   -6.9697 H   0  0  0  0  0  0  0  0  0  0  0  0
   -8.9349  -12.0673   -9.0294 H   0  0  0  0  0  0  0  0  0  0  0  0
   -9.3905  -12.1835   -7.3348 H   0  0  0  0  0  0  0  0  0  0  0  0
  -10.7886   -9.2847   -7.3672 H   0  0  0  0  0  0  0  0  0  0  0  0
  -12.5730   -8.9298   -9.7447 H   0  0  0  0  0  0  0  0  0  0  0  0
  -13.0140   -8.8951   -8.0191 H   0  0  0  0  0  0  0  0  0  0  0  0
  -12.1315   -6.5950   -9.2085 H   0  0  0  0  0  0  0  0  0  0  0  0
  -11.6664   -6.9528   -7.5635 H   0  0  0  0  0  0  0  0  0  0  0  0
  -10.1536   -9.0242  -10.3571 H   0  0  0  0  0  0  0  0  0  0  0  0
   -8.0479   -9.5953   -9.8630 H   0  0  0  0  0  0  0  0  0  0  0  0
  -10.0189   -6.8747   -9.8876 H   0  0  0  0  0  0  0  0  0  0  0  0
  1  2  1  0
  1 21  1  0
  1 22  1  0
  1 23  1  0
  2  3  1  0
  2  4  1  0
  2 24  1  6
  3 25  1  0
  4 18  1  0
  4  5  1  0
  4 26  1  1
  5 20  1  0
  5  6  1  0
  5 27  1  6
  6 10  1  0
  6  7  1  0
  6 28  1  1
  7  8  1  0
  7 29  1  0
  7 30  1  0
  8  9  1  0
  8 31  1  0
  8 32  1  0
  9 10  1  0
  9 11  1  0
  9 33  1  1
 10 34  1  0
 10 35  1  0
 11 20  1  0
 11 12  1  0
 11 36  1  1
 12 13  1  0
 12 37  1  0
 12 38  1  0
 13 14  2  0
 13 15  1  0
 15 19  1  0
 15 16  1  0
 15 39  1  1
 16 17  1  0
 16 40  1  0
 16 41  1  0
 17 18  1  0
 17 42  1  0
 17 43  1  0
 18 19  1  0
 18 46  1  6
 19 20  1  0
 19 44  1  6
 20 45  1  6
M  CHG  1  18   1
M  END
>  <i_m_ct_stereo_status>  (130) 
1

>  <s_m_source_file>  (130) 
/var/tmp/pbs.5076255.sched01/tmpbrsd6n1o/39u_ie0p0h.sdf

>  <i_m_source_file_index>  (130) 
11

>  <i_lp_mmshare_version>  (130) 
48012

>  <i_f3d_flags>  (130) 
0

>  <s_epik_input>  (130) 
W0NIM11bQ0BIXShbT0hdKVtDQEhdMU4yW0NIMl1bQ0gyXVtDQEBIXShDKD1PKVtDSDJdMylbQ0BASF0yW0NAQEhdNFtDQEBIXTNbQ0BASF0oW0NIMl01KVtDSDJdW0NIMl1bQ0BASF01W0NASF0xNA==

>  <s_epik_cmdline>  (130) 
J2VwaWtfcHl0aG9uJywgJy1waHQnLCAnMi4wJywgJy1waCcsICc3LjAnLCAnLXRuJywgJzgnLCAnLW1hJywgJzIwMCcsICctaW1hZScsICc8aW5maWxlLm1hZT4nLCAnLW9tYWUnLCAnPG91dGZpbGUubWFlPic=

>  <r_lp_tautomer_probability>  (130) 
1

>  <r_epik_Ionization_Penalty>  (130) 
0.000246194

>  <r_epik_Ionization_Penalty_Charging>  (130) 
0.000246183

>  <r_epik_Ionization_Penalty_Neutral>  (130) 
1.12318e-08

>  <r_epik_State_Penalty>  (130) 
-0

>  <r_epik_Charging_Adjusted_Penalty>  (130) 
0.000246183

>  <i_epik_Tot_Q>  (130) 
1

>  <i_epik_Tot_abs_Q>  (130) 
1

>  <s_lp_Force_Field>  (130) 
OPLS3e

>  <r_lp_Energy>  (130) 
57.3353

>  <b_lp_Chiralities_Consistent>  (130) 
1

>  <s_lp_Variant>  (130) 
38:0-1

>  <s_i_glide_gridfile>  (130) 
pfpi4k_grid

>  <i_i_glide_lignum>  (130) 
11

>  <i_i_glide_rotatable_bonds>  (130) 
2

>  <r_i_docking_score>  (130) 
-4.87447

>  <r_i_glide_ligand_efficiency>  (130) 
-0.243724

>  <r_i_glide_ligand_efficiency_sa>  (130) 
-0.661568

>  <r_i_glide_ligand_efficiency_ln>  (130) 
-1.21992

>  <r_i_glide_gscore>  (130) 
-4.87447

>  <r_i_glide_lipo>  (130) 
-1.53753

>  <r_i_glide_hbond>  (130) 
0

>  <r_i_glide_metal>  (130) 
-0

>  <r_i_glide_rewards>  (130) 
-1.76625

>  <r_i_glide_evdw>  (130) 
-21.8716

>  <r_i_glide_ecoul>  (130) 
-3.12684

>  <r_i_glide_erotb>  (130) 
0

>  <r_i_glide_esite>  (130) 
-0.00808325

>  <r_i_glide_emodel>  (130) 
-32.1283

>  <r_i_glide_energy>  (130) 
-24.9984

>  <r_i_glide_einternal>  (130) 
0.378522

>  <r_i_glide_intrahb_reward>  (130) 
-0

>  <i_i_glide_confnum>  (130) 
1

>  <i_i_glide_posenum>  (130) 
37

>  <r_i_glide_eff_state_penalty>  (130) 
0

>  <ligand_id>  (130) 
38

>  <original_smiles>  (130) 
CC(O)C1C2C3CCC(C3)C3CC(=O)C4CCN1C4C32

>  <smiles>  (130) 
[H]OC([H])(C([H])([H])[H])C1([H])C2([H])C3([H])C([H])([H])C([H])([H])C([H])(C3([H])[H])C3([H])C([H])([H])C(=O)C4([H])C([H])([H])C([H])([H])[N+]1([H])C4([H])C32[H]

$$$$
39:0:0
     RDKit          3D

 59 64  0  0  1  0  0  0  0  0999 V2000
    4.0012   -0.8483    0.0238 C   0  0  0  0  0  0  0  0  0  0  0  0
    4.1312   -2.3713   -0.1923 C   0  0  1  0  0  0  0  0  0  0  0  0
    3.0921   -2.7857   -1.2394 C   0  0  0  0  0  0  0  0  0  0  0  0
    3.3598   -3.2285   -2.4814 C   0  0  0  0  0  0  0  0  0  0  0  0
    4.7421   -3.4407   -2.9284 C   0  0  0  0  0  0  0  0  0  0  0  0
    4.9901   -3.8541   -4.0551 O   0  0  0  0  0  0  0  0  0  0  0  0
    5.8145   -3.1690   -1.9665 C   0  0  0  0  0  0  0  0  0  0  0  0
    5.5331   -2.6958   -0.7354 C   0  0  0  0  0  0  0  0  0  0  0  0
    6.6429   -2.5422    0.2096 C   0  0  0  0  0  0  0  0  0  0  0  0
    7.7691   -2.1787   -0.1299 O   0  0  0  0  0  0  0  0  0  0  0  0
    6.3601   -2.8106    1.6799 C   0  0  0  0  0  0  0  0  0  0  0  0
    4.9668   -3.3568    1.9814 C   0  0  0  0  0  0  0  0  0  0  0  0
    3.9193   -3.0797    1.1657 C   0  0  0  0  0  0  0  0  0  0  0  0
    2.4856   -3.4420    1.5490 C   0  0  0  0  0  0  0  0  0  0  0  0
    2.2690   -3.9271    2.9973 C   0  0  0  0  0  0  0  0  0  0  0  0
    3.4572   -4.7981    3.3836 C   0  0  2  0  0  0  0  0  0  0  0  0
    3.4506   -5.5785    4.7070 C   0  0  1  0  0  0  0  0  0  0  0  0
    2.5654   -6.8376    4.6896 C   0  0  0  0  0  0  0  0  0  0  0  0
    3.4313   -7.9858    4.1728 C   0  0  0  0  0  0  0  0  0  0  0  0
    4.8373   -7.5449    4.5247 C   0  0  0  0  0  0  0  0  0  0  0  0
    5.7892   -8.3174    4.5909 O   0  0  0  0  0  0  0  0  0  0  0  0
    4.9217   -6.0454    4.8530 C   0  0  2  0  0  0  0  0  0  0  0  0
    5.4443   -5.8997    6.2998 C   0  0  0  0  0  0  0  0  0  0  0  0
    5.7336   -5.1463    3.8400 C   0  0  1  0  0  0  0  0  0  0  0  0
    6.4826   -5.8617    2.7197 C   0  0  0  0  0  0  0  0  0  0  0  0
    7.8986   -5.9149    2.5357 C   0  0  0  0  0  0  0  0  0  0  0  0
    8.1149   -6.6546    1.4128 C   0  0  0  0  0  0  0  0  0  0  0  0
    6.9445   -7.0722    0.8847 O   0  0  0  0  0  0  0  0  0  0  0  0
    5.9668   -6.5946    1.6835 C   0  0  0  0  0  0  0  0  0  0  0  0
    4.7710   -4.0054    3.3724 C   0  0  1  0  0  0  0  0  0  0  0  0
    4.7886   -2.8539    4.4169 C   0  0  0  0  0  0  0  0  0  0  0  0
    2.9969   -0.5785    0.3485 H   0  0  0  0  0  0  0  0  0  0  0  0
    4.2117   -0.2935   -0.8943 H   0  0  0  0  0  0  0  0  0  0  0  0
    4.6907   -0.4694    0.7819 H   0  0  0  0  0  0  0  0  0  0  0  0
    2.0524   -2.6809   -0.9635 H   0  0  0  0  0  0  0  0  0  0  0  0
    2.5686   -3.4931   -3.1696 H   0  0  0  0  0  0  0  0  0  0  0  0
    6.8255   -3.4222   -2.2615 H   0  0  0  0  0  0  0  0  0  0  0  0
    7.1018   -3.5273    2.0023 H   0  0  0  0  0  0  0  0  0  0  0  0
    6.5294   -1.8961    2.2463 H   0  0  0  0  0  0  0  0  0  0  0  0
    1.8389   -2.5823    1.3719 H   0  0  0  0  0  0  0  0  0  0  0  0
    2.1758   -4.2405    0.8737 H   0  0  0  0  0  0  0  0  0  0  0  0
    2.1675   -3.0868    3.6796 H   0  0  0  0  0  0  0  0  0  0  0  0
    1.3403   -4.4939    3.0721 H   0  0  0  0  0  0  0  0  0  0  0  0
    3.5240   -5.5477    2.5983 H   0  0  0  0  0  0  0  0  0  0  0  0
    3.1502   -4.9250    5.5286 H   0  0  0  0  0  0  0  0  0  0  0  0
    2.2513   -7.0666    5.7092 H   0  0  0  0  0  0  0  0  0  0  0  0
    1.6591   -6.7055    4.0946 H   0  0  0  0  0  0  0  0  0  0  0  0
    3.1780   -8.9437    4.6300 H   0  0  0  0  0  0  0  0  0  0  0  0
    3.3542   -8.0833    3.0912 H   0  0  0  0  0  0  0  0  0  0  0  0
    5.3067   -4.8919    6.6872 H   0  0  0  0  0  0  0  0  0  0  0  0
    6.5074   -6.1315    6.3649 H   0  0  0  0  0  0  0  0  0  0  0  0
    4.9316   -6.5773    6.9792 H   0  0  0  0  0  0  0  0  0  0  0  0
    6.5368   -4.6817    4.4061 H   0  0  0  0  0  0  0  0  0  0  0  0
    8.6721   -5.4646    3.1422 H   0  0  0  0  0  0  0  0  0  0  0  0
    8.9968   -6.9783    0.8776 H   0  0  0  0  0  0  0  0  0  0  0  0
    4.9682   -6.8827    1.3891 H   0  0  0  0  0  0  0  0  0  0  0  0
    4.5009   -3.1754    5.4148 H   0  0  0  0  0  0  0  0  0  0  0  0
    4.1109   -2.0465    4.1430 H   0  0  0  0  0  0  0  0  0  0  0  0
    5.7800   -2.4115    4.5097 H   0  0  0  0  0  0  0  0  0  0  0  0
  2  1  1  1
  1 32  1  0
  1 33  1  0
  1 34  1  0
  2  8  1  0
  2 13  1  0
  2  3  1  0
  3  4  2  0
  3 35  1  0
  4  5  1  0
  4 36  1  0
  5  6  2  0
  5  7  1  0
  7  8  2  0
  7 37  1  0
  8  9  1  0
  9 10  2  0
  9 11  1  0
 11 12  1  0
 11 38  1  0
 11 39  1  0
 12 30  1  0
 12 13  2  0
 13 14  1  0
 14 15  1  0
 14 40  1  0
 14 41  1  0
 15 16  1  0
 15 42  1  0
 15 43  1  0
 16 30  1  0
 16 17  1  0
 16 44  1  6
 17 22  1  0
 17 18  1  0
 17 45  1  1
 18 19  1  0
 18 46  1  0
 18 47  1  0
 19 20  1  0
 19 48  1  0
 19 49  1  0
 20 21  2  0
 20 22  1  0
 22 23  1  1
 22 24  1  0
 23 50  1  0
 23 51  1  0
 23 52  1  0
 24 25  1  0
 24 30  1  0
 24 53  1  1
 25 29  2  0
 25 26  1  0
 26 27  2  0
 26 54  1  0
 27 28  1  0
 27 55  1  0
 28 29  1  0
 29 56  1  0
 30 31  1  1
 31 57  1  0
 31 58  1  0
 31 59  1  0
M  END
>  <i_m_ct_stereo_status>  (131) 
1

>  <s_m_source_file>  (131) 
/var/tmp/pbs.5076255.sched01/tmpbrsd6n1o/39u_ie0p0h.sdf

>  <i_m_source_file_index>  (131) 
12

>  <i_lp_mmshare_version>  (131) 
48012

>  <i_f3d_flags>  (131) 
0

>  <s_epik_input>  (131) 
W0NIXTE9W0NIXUMoPU8pW0NIXT1DKFtDQEBdMTJbQ0gzXSlDKD1PKVtDSDJdQzM9QzJbQ0gyXVtDSDJdW0NAQEhdNFtDQEBIXTVbQ0BAXShbQ0gzXSkoQyg9TylbQ0gyXVtDSDJdNSlbQ0BIXShbQ0BAXTM0W0NIM10pYzZbY0hdW2NIXW9bY0hdNg==

>  <s_epik_cmdline>  (131) 
J2VwaWtfcHl0aG9uJywgJy1waHQnLCAnMi4wJywgJy1waCcsICc3LjAnLCAnLXRuJywgJzgnLCAnLW1hJywgJzIwMCcsICctaW1hZScsICc8aW5maWxlLm1hZT4nLCAnLW9tYWUnLCAnPG91dGZpbGUubWFlPic=

>  <r_lp_tautomer_probability>  (131) 
1

>  <r_epik_Ionization_Penalty>  (131) 
1.54581e-13

>  <r_epik_Ionization_Penalty_Charging>  (131) 
0

>  <r_epik_Ionization_Penalty_Neutral>  (131) 
1.54581e-13

>  <r_epik_State_Penalty>  (131) 
-0

>  <r_epik_Charging_Adjusted_Penalty>  (131) 
0

>  <i_epik_Tot_Q>  (131) 
0

>  <i_epik_Tot_abs_Q>  (131) 
0

>  <s_lp_Force_Field>  (131) 
OPLS3e

>  <r_lp_Energy>  (131) 
49.8136

>  <b_lp_Chiralities_Consistent>  (131) 
1

>  <s_lp_Variant>  (131) 
39:0-1

>  <s_i_glide_gridfile>  (131) 
pfpi4k_grid

>  <i_i_glide_lignum>  (131) 
12

>  <i_i_glide_rotatable_bonds>  (131) 
1

>  <r_i_docking_score>  (131) 
-3.11596

>  <r_i_glide_ligand_efficiency>  (131) 
-0.100515

>  <r_i_glide_ligand_efficiency_sa>  (131) 
-0.315755

>  <r_i_glide_ligand_efficiency_ln>  (131) 
-0.702743

>  <r_i_glide_gscore>  (131) 
-3.11596

>  <r_i_glide_lipo>  (131) 
-0.389791

>  <r_i_glide_hbond>  (131) 
-0.0866384

>  <r_i_glide_metal>  (131) 
-0

>  <r_i_glide_rewards>  (131) 
-0.818591

>  <r_i_glide_evdw>  (131) 
-23.6331

>  <r_i_glide_ecoul>  (131) 
-5.02109

>  <r_i_glide_erotb>  (131) 
0.113884

>  <r_i_glide_esite>  (131) 
0

>  <r_i_glide_emodel>  (131) 
-34.4369

>  <r_i_glide_energy>  (131) 
-28.6542

>  <r_i_glide_einternal>  (131) 
0.202288

>  <r_i_glide_intrahb_reward>  (131) 
-0

>  <i_i_glide_confnum>  (131) 
1

>  <i_i_glide_posenum>  (131) 
5

>  <r_i_glide_eff_state_penalty>  (131) 
0

>  <ligand_id>  (131) 
39

>  <original_smiles>  (131) 
CC12C=CC(=O)C=C1C(=O)CC1=C2CCC2C3CCC(=O)C3(C)C(c3ccoc3)C12C

>  <smiles>  (131) 
[H]C1=C([H])C2(C([H])([H])[H])C(=C([H])C1=O)C(=O)C([H])([H])C1=C2C([H])([H])C([H])([H])C2([H])C3([H])C([H])([H])C([H])([H])C(=O)C3(C([H])([H])[H])C([H])(c3c([H])oc([H])c3[H])C12C([H])([H])[H]

$$$$
39:0:1
     RDKit          3D

 59 64  0  0  1  0  0  0  0  0999 V2000
    6.9749   -1.7231    0.4794 C   0  0  0  0  0  0  0  0  0  0  0  0
    5.5040   -2.1466    0.2904 C   0  0  1  0  0  0  0  0  0  0  0  0
    4.9072   -1.2431   -0.7947 C   0  0  0  0  0  0  0  0  0  0  0  0
    4.4890   -1.6425   -2.0131 C   0  0  0  0  0  0  0  0  0  0  0  0
    4.5558   -3.0572   -2.4092 C   0  0  0  0  0  0  0  0  0  0  0  0
    4.2514   -3.4159   -3.5478 O   0  0  0  0  0  0  0  0  0  0  0  0
    5.0144   -4.0166   -1.3983 C   0  0  0  0  0  0  0  0  0  0  0  0
    5.4373   -3.6111   -0.1791 C   0  0  0  0  0  0  0  0  0  0  0  0
    5.8077   -4.6380    0.8099 C   0  0  0  0  0  0  0  0  0  0  0  0
    6.3688   -5.6894    0.5137 O   0  0  0  0  0  0  0  0  0  0  0  0
    5.4907   -4.3641    2.2817 C   0  0  0  0  0  0  0  0  0  0  0  0
    4.7142   -3.0623    2.5168 C   0  0  0  0  0  0  0  0  0  0  0  0
    4.7768   -2.0143    1.6496 C   0  0  0  0  0  0  0  0  0  0  0  0
    4.1238   -0.6578    1.9580 C   0  0  0  0  0  0  0  0  0  0  0  0
    3.6041   -0.4929    3.4001 C   0  0  0  0  0  0  0  0  0  0  0  0
    2.9761   -1.8116    3.8364 C   0  0  2  0  0  0  0  0  0  0  0  0
    2.2068   -1.9017    5.1638 C   0  0  1  0  0  0  0  0  0  0  0  0
    0.8039   -1.2711    5.1229 C   0  0  0  0  0  0  0  0  0  0  0  0
   -0.1476   -2.3601    4.6419 C   0  0  0  0  0  0  0  0  0  0  0  0
    0.5519   -3.6450    5.0396 C   0  0  0  0  0  0  0  0  0  0  0  0
   -0.0347   -4.7188    5.1680 O   0  0  0  0  0  0  0  0  0  0  0  0
    2.0337   -3.4311    5.3646 C   0  0  2  0  0  0  0  0  0  0  0  0
    2.2591   -3.8608    6.8308 C   0  0  0  0  0  0  0  0  0  0  0  0
    3.0714   -4.1022    4.3755 C   0  0  1  0  0  0  0  0  0  0  0  0
    2.4920   -5.0146    3.2943 C   0  0  0  0  0  0  0  0  0  0  0  0
    2.1298   -6.3884    3.4395 C   0  0  0  0  0  0  0  0  0  0  0  0
    1.6669   -6.8111    2.2272 C   0  0  0  0  0  0  0  0  0  0  0  0
    1.7086   -5.8017    1.3208 O   0  0  0  0  0  0  0  0  0  0  0  0
    2.2133   -4.7269    1.9832 C   0  0  0  0  0  0  0  0  0  0  0  0
    4.0080   -2.9469    3.8836 C   0  0  1  0  0  0  0  0  0  0  0  0
    5.1250   -2.7131    4.9344 C   0  0  0  0  0  0  0  0  0  0  0  0
    7.0510   -0.6780    0.7801 H   0  0  0  0  0  0  0  0  0  0  0  0
    7.5684   -1.8599   -0.4272 H   0  0  0  0  0  0  0  0  0  0  0  0
    7.4488   -2.3115    1.2626 H   0  0  0  0  0  0  0  0  0  0  0  0
    4.8641   -0.1884   -0.5638 H   0  0  0  0  0  0  0  0  0  0  0  0
    4.1044   -0.9421   -2.7387 H   0  0  0  0  0  0  0  0  0  0  0  0
    4.9813   -5.0663   -1.6573 H   0  0  0  0  0  0  0  0  0  0  0  0
    4.9235   -5.2169    2.6417 H   0  0  0  0  0  0  0  0  0  0  0  0
    6.4183   -4.3531    2.8515 H   0  0  0  0  0  0  0  0  0  0  0  0
    4.8375    0.1377    1.7572 H   0  0  0  0  0  0  0  0  0  0  0  0
    3.2837   -0.5264    1.2736 H   0  0  0  0  0  0  0  0  0  0  0  0
    4.4092   -0.2093    4.0764 H   0  0  0  0  0  0  0  0  0  0  0  0
    2.8711    0.3119    3.4453 H   0  0  0  0  0  0  0  0  0  0  0  0
    2.2534   -2.0601    3.0603 H   0  0  0  0  0  0  0  0  0  0  0  0
    2.7871   -1.4533    5.9735 H   0  0  0  0  0  0  0  0  0  0  0  0
    0.5141   -0.9679    6.1287 H   0  0  0  0  0  0  0  0  0  0  0  0
    0.7629   -0.3856    4.4879 H   0  0  0  0  0  0  0  0  0  0  0  0
   -1.1405   -2.2830    5.0865 H   0  0  0  0  0  0  0  0  0  0  0  0
   -0.2430   -2.3380    3.5575 H   0  0  0  0  0  0  0  0  0  0  0  0
    3.2174   -3.5243    7.2186 H   0  0  0  0  0  0  0  0  0  0  0  0
    2.2303   -4.9448    6.9417 H   0  0  0  0  0  0  0  0  0  0  0  0
    1.4916   -3.4581    7.4876 H   0  0  0  0  0  0  0  0  0  0  0  0
    3.6863   -4.7919    4.9535 H   0  0  0  0  0  0  0  0  0  0  0  0
    2.1930   -6.9994    4.3306 H   0  0  0  0  0  0  0  0  0  0  0  0
    1.2903   -7.7512    1.8521 H   0  0  0  0  0  0  0  0  0  0  0  0
    2.3050   -3.8337    1.3839 H   0  0  0  0  0  0  0  0  0  0  0  0
    4.7470   -2.4546    5.9194 H   0  0  0  0  0  0  0  0  0  0  0  0
    5.7880   -1.9064    4.6306 H   0  0  0  0  0  0  0  0  0  0  0  0
    5.7473   -3.6009    5.0588 H   0  0  0  0  0  0  0  0  0  0  0  0
  2  1  1  1
  1 32  1  0
  1 33  1  0
  1 34  1  0
  2  8  1  0
  2 13  1  0
  2  3  1  0
  3  4  2  0
  3 35  1  0
  4  5  1  0
  4 36  1  0
  5  6  2  0
  5  7  1  0
  7  8  2  0
  7 37  1  0
  8  9  1  0
  9 10  2  0
  9 11  1  0
 11 12  1  0
 11 38  1  0
 11 39  1  0
 12 30  1  0
 12 13  2  0
 13 14  1  0
 14 15  1  0
 14 40  1  0
 14 41  1  0
 15 16  1  0
 15 42  1  0
 15 43  1  0
 16 30  1  0
 16 17  1  0
 16 44  1  6
 17 22  1  0
 17 18  1  0
 17 45  1  1
 18 19  1  0
 18 46  1  0
 18 47  1  0
 19 20  1  0
 19 48  1  0
 19 49  1  0
 20 21  2  0
 20 22  1  0
 22 23  1  1
 22 24  1  0
 23 50  1  0
 23 51  1  0
 23 52  1  0
 24 25  1  0
 24 30  1  0
 24 53  1  1
 25 29  2  0
 25 26  1  0
 26 27  2  0
 26 54  1  0
 27 28  1  0
 27 55  1  0
 28 29  1  0
 29 56  1  0
 30 31  1  1
 31 57  1  0
 31 58  1  0
 31 59  1  0
M  END
>  <i_m_ct_stereo_status>  (132) 
1

>  <s_m_source_file>  (132) 
/var/tmp/pbs.5076255.sched01/tmpbrsd6n1o/39u_ie0p0h.sdf

>  <i_m_source_file_index>  (132) 
12

>  <i_lp_mmshare_version>  (132) 
48012

>  <i_f3d_flags>  (132) 
0

>  <s_epik_input>  (132) 
W0NIXTE9W0NIXUMoPU8pW0NIXT1DKFtDQEBdMTJbQ0gzXSlDKD1PKVtDSDJdQzM9QzJbQ0gyXVtDSDJdW0NAQEhdNFtDQEBIXTVbQ0BAXShbQ0gzXSkoQyg9TylbQ0gyXVtDSDJdNSlbQ0BIXShbQ0BAXTM0W0NIM10pYzZbY0hdW2NIXW9bY0hdNg==

>  <s_epik_cmdline>  (132) 
J2VwaWtfcHl0aG9uJywgJy1waHQnLCAnMi4wJywgJy1waCcsICc3LjAnLCAnLXRuJywgJzgnLCAnLW1hJywgJzIwMCcsICctaW1hZScsICc8aW5maWxlLm1hZT4nLCAnLW9tYWUnLCAnPG91dGZpbGUubWFlPic=

>  <r_lp_tautomer_probability>  (132) 
1

>  <r_epik_Ionization_Penalty>  (132) 
1.54581e-13

>  <r_epik_Ionization_Penalty_Charging>  (132) 
0

>  <r_epik_Ionization_Penalty_Neutral>  (132) 
1.54581e-13

>  <r_epik_State_Penalty>  (132) 
-0

>  <r_epik_Charging_Adjusted_Penalty>  (132) 
0

>  <i_epik_Tot_Q>  (132) 
0

>  <i_epik_Tot_abs_Q>  (132) 
0

>  <s_lp_Force_Field>  (132) 
OPLS3e

>  <r_lp_Energy>  (132) 
49.8136

>  <b_lp_Chiralities_Consistent>  (132) 
1

>  <s_lp_Variant>  (132) 
39:0-1

>  <s_i_glide_gridfile>  (132) 
pfpi4k_grid

>  <i_i_glide_lignum>  (132) 
12

>  <i_i_glide_rotatable_bonds>  (132) 
1

>  <r_i_docking_score>  (132) 
-2.99961

>  <r_i_glide_ligand_efficiency>  (132) 
-0.0967617

>  <r_i_glide_ligand_efficiency_sa>  (132) 
-0.303965

>  <r_i_glide_ligand_efficiency_ln>  (132) 
-0.676505

>  <r_i_glide_gscore>  (132) 
-2.99961

>  <r_i_glide_lipo>  (132) 
-0.31699

>  <r_i_glide_hbond>  (132) 
-0.0730508

>  <r_i_glide_metal>  (132) 
-0

>  <r_i_glide_rewards>  (132) 
-0.738007

>  <r_i_glide_evdw>  (132) 
-29.5007

>  <r_i_glide_ecoul>  (132) 
-3.39656

>  <r_i_glide_erotb>  (132) 
0.113884

>  <r_i_glide_esite>  (132) 
-0.000929739

>  <r_i_glide_emodel>  (132) 
-38.3569

>  <r_i_glide_energy>  (132) 
-32.8973

>  <r_i_glide_einternal>  (132) 
0.552709

>  <r_i_glide_intrahb_reward>  (132) 
-0

>  <i_i_glide_confnum>  (132) 
3

>  <i_i_glide_posenum>  (132) 
31

>  <r_i_glide_eff_state_penalty>  (132) 
0

>  <ligand_id>  (132) 
39

>  <original_smiles>  (132) 
CC12C=CC(=O)C=C1C(=O)CC1=C2CCC2C3CCC(=O)C3(C)C(c3ccoc3)C12C

>  <smiles>  (132) 
[H]C1=C([H])C2(C([H])([H])[H])C(=C([H])C1=O)C(=O)C([H])([H])C1=C2C([H])([H])C([H])([H])C2([H])C3([H])C([H])([H])C([H])([H])C(=O)C3(C([H])([H])[H])C([H])(c3c([H])oc([H])c3[H])C12C([H])([H])[H]

$$$$
39:0:2
     RDKit          3D

 59 64  0  0  1  0  0  0  0  0999 V2000
    2.9065   -8.2405    2.4325 C   0  0  0  0  0  0  0  0  0  0  0  0
    1.8957   -7.0753    2.5263 C   0  0  1  0  0  0  0  0  0  0  0  0
    0.7818   -7.3682    1.5200 C   0  0  0  0  0  0  0  0  0  0  0  0
   -0.5016   -7.6420    1.8276 C   0  0  0  0  0  0  0  0  0  0  0  0
   -0.9724   -7.6364    3.2155 C   0  0  0  0  0  0  0  0  0  0  0  0
   -2.1511   -7.8524    3.4871 O   0  0  0  0  0  0  0  0  0  0  0  0
    0.0021   -7.2914    4.2541 C   0  0  0  0  0  0  0  0  0  0  0  0
    1.2920   -7.0243    3.9453 C   0  0  0  0  0  0  0  0  0  0  0  0
    2.1796   -6.5618    5.0241 C   0  0  0  0  0  0  0  0  0  0  0  0
    2.0972   -6.9550    6.1857 O   0  0  0  0  0  0  0  0  0  0  0  0
    3.2570   -5.5369    4.6727 C   0  0  0  0  0  0  0  0  0  0  0  0
    3.1669   -5.0081    3.2336 C   0  0  0  0  0  0  0  0  0  0  0  0
    2.6272   -5.7504    2.2271 C   0  0  0  0  0  0  0  0  0  0  0  0
    2.7166   -5.3196    0.7536 C   0  0  0  0  0  0  0  0  0  0  0  0
    3.6463   -4.1244    0.4706 C   0  0  0  0  0  0  0  0  0  0  0  0
    3.5001   -3.1188    1.6081 C   0  0  2  0  0  0  0  0  0  0  0  0
    4.1753   -1.7405    1.5256 C   0  0  1  0  0  0  0  0  0  0  0  0
    3.4560   -0.7457    0.6015 C   0  0  0  0  0  0  0  0  0  0  0  0
    2.4011   -0.0318    1.4482 C   0  0  0  0  0  0  0  0  0  0  0  0
    2.9475   -0.1364    2.8520 C   0  0  0  0  0  0  0  0  0  0  0  0
    2.5790    0.5863    3.7791 O   0  0  0  0  0  0  0  0  0  0  0  0
    4.0492   -1.1950    2.9731 C   0  0  2  0  0  0  0  0  0  0  0  0
    5.3370   -0.4845    3.4368 C   0  0  0  0  0  0  0  0  0  0  0  0
    3.7174   -2.4582    3.8599 C   0  0  1  0  0  0  0  0  0  0  0  0
    2.3947   -2.4350    4.6212 C   0  0  0  0  0  0  0  0  0  0  0  0
    2.2262   -2.2744    6.0265 C   0  0  0  0  0  0  0  0  0  0  0  0
    0.8840   -2.3126    6.2719 C   0  0  0  0  0  0  0  0  0  0  0  0
    0.1879   -2.4809    5.1189 O   0  0  0  0  0  0  0  0  0  0  0  0
    1.1155   -2.5488    4.1298 C   0  0  0  0  0  0  0  0  0  0  0  0
    3.9441   -3.7101    2.9523 C   0  0  1  0  0  0  0  0  0  0  0  0
    5.4421   -4.0969    2.9710 C   0  0  0  0  0  0  0  0  0  0  0  0
    3.3184   -8.3367    1.4293 H   0  0  0  0  0  0  0  0  0  0  0  0
    2.4503   -9.1995    2.6887 H   0  0  0  0  0  0  0  0  0  0  0  0
    3.7493   -8.0985    3.1092 H   0  0  0  0  0  0  0  0  0  0  0  0
    1.0724   -7.4326    0.4828 H   0  0  0  0  0  0  0  0  0  0  0  0
   -1.2097   -7.9100    1.0648 H   0  0  0  0  0  0  0  0  0  0  0  0
   -0.3618   -7.2112    5.2687 H   0  0  0  0  0  0  0  0  0  0  0  0
    3.1527   -4.7242    5.3852 H   0  0  0  0  0  0  0  0  0  0  0  0
    4.2392   -5.9748    4.8475 H   0  0  0  0  0  0  0  0  0  0  0  0
    3.0450   -6.1594    0.1440 H   0  0  0  0  0  0  0  0  0  0  0  0
    1.7140   -5.0561    0.4220 H   0  0  0  0  0  0  0  0  0  0  0  0
    4.6786   -4.4536    0.3736 H   0  0  0  0  0  0  0  0  0  0  0  0
    3.3815   -3.6605   -0.4792 H   0  0  0  0  0  0  0  0  0  0  0  0
    2.4315   -2.9196    1.6769 H   0  0  0  0  0  0  0  0  0  0  0  0
    5.2197   -1.8435    1.2163 H   0  0  0  0  0  0  0  0  0  0  0  0
    4.1737   -0.0099    0.2346 H   0  0  0  0  0  0  0  0  0  0  0  0
    3.0188   -1.2346   -0.2710 H   0  0  0  0  0  0  0  0  0  0  0  0
    2.2456    1.0015    1.1458 H   0  0  0  0  0  0  0  0  0  0  0  0
    1.4456   -0.5518    1.3990 H   0  0  0  0  0  0  0  0  0  0  0  0
    6.2094   -1.1119    3.2922 H   0  0  0  0  0  0  0  0  0  0  0  0
    5.2915   -0.2015    4.4917 H   0  0  0  0  0  0  0  0  0  0  0  0
    5.5193    0.4324    2.8779 H   0  0  0  0  0  0  0  0  0  0  0  0
    4.4514   -2.5057    4.6624 H   0  0  0  0  0  0  0  0  0  0  0  0
    2.9941   -2.1486    6.7788 H   0  0  0  0  0  0  0  0  0  0  0  0
    0.2873   -2.2375    7.1671 H   0  0  0  0  0  0  0  0  0  0  0  0
    0.7062   -2.6705    3.1384 H   0  0  0  0  0  0  0  0  0  0  0  0
    6.0824   -3.2911    2.6236 H   0  0  0  0  0  0  0  0  0  0  0  0
    5.6526   -4.9585    2.3358 H   0  0  0  0  0  0  0  0  0  0  0  0
    5.7799   -4.3551    3.9766 H   0  0  0  0  0  0  0  0  0  0  0  0
  2  1  1  1
  1 32  1  0
  1 33  1  0
  1 34  1  0
  2  8  1  0
  2 13  1  0
  2  3  1  0
  3  4  2  0
  3 35  1  0
  4  5  1  0
  4 36  1  0
  5  6  2  0
  5  7  1  0
  7  8  2  0
  7 37  1  0
  8  9  1  0
  9 10  2  0
  9 11  1  0
 11 12  1  0
 11 38  1  0
 11 39  1  0
 12 30  1  0
 12 13  2  0
 13 14  1  0
 14 15  1  0
 14 40  1  0
 14 41  1  0
 15 16  1  0
 15 42  1  0
 15 43  1  0
 16 30  1  0
 16 17  1  0
 16 44  1  1
 17 22  1  0
 17 18  1  0
 17 45  1  6
 18 19  1  0
 18 46  1  0
 18 47  1  0
 19 20  1  0
 19 48  1  0
 19 49  1  0
 20 21  2  0
 20 22  1  0
 22 23  1  1
 22 24  1  0
 23 50  1  0
 23 51  1  0
 23 52  1  0
 24 25  1  0
 24 30  1  0
 24 53  1  1
 25 29  2  0
 25 26  1  0
 26 27  2  0
 26 54  1  0
 27 28  1  0
 27 55  1  0
 28 29  1  0
 29 56  1  0
 30 31  1  6
 31 57  1  0
 31 58  1  0
 31 59  1  0
M  END
>  <i_m_ct_stereo_status>  (133) 
1

>  <s_m_source_file>  (133) 
/var/tmp/pbs.5076255.sched01/tmpbrsd6n1o/39u_ie0p0h.sdf

>  <i_m_source_file_index>  (133) 
12

>  <i_lp_mmshare_version>  (133) 
48012

>  <i_f3d_flags>  (133) 
0

>  <s_epik_input>  (133) 
W0NIXTE9W0NIXUMoPU8pW0NIXT1DKFtDQEBdMTJbQ0gzXSlDKD1PKVtDSDJdQzM9QzJbQ0gyXVtDSDJdW0NAQEhdNFtDQEBIXTVbQ0BAXShbQ0gzXSkoQyg9TylbQ0gyXVtDSDJdNSlbQ0BIXShbQ0BAXTM0W0NIM10pYzZbY0hdW2NIXW9bY0hdNg==

>  <s_epik_cmdline>  (133) 
J2VwaWtfcHl0aG9uJywgJy1waHQnLCAnMi4wJywgJy1waCcsICc3LjAnLCAnLXRuJywgJzgnLCAnLW1hJywgJzIwMCcsICctaW1hZScsICc8aW5maWxlLm1hZT4nLCAnLW9tYWUnLCAnPG91dGZpbGUubWFlPic=

>  <r_lp_tautomer_probability>  (133) 
1

>  <r_epik_Ionization_Penalty>  (133) 
1.54581e-13

>  <r_epik_Ionization_Penalty_Charging>  (133) 
0

>  <r_epik_Ionization_Penalty_Neutral>  (133) 
1.54581e-13

>  <r_epik_State_Penalty>  (133) 
-0

>  <r_epik_Charging_Adjusted_Penalty>  (133) 
0

>  <i_epik_Tot_Q>  (133) 
0

>  <i_epik_Tot_abs_Q>  (133) 
0

>  <s_lp_Force_Field>  (133) 
OPLS3e

>  <r_lp_Energy>  (133) 
49.8136

>  <b_lp_Chiralities_Consistent>  (133) 
1

>  <s_lp_Variant>  (133) 
39:0-1

>  <s_i_glide_gridfile>  (133) 
pfpi4k_grid

>  <i_i_glide_lignum>  (133) 
12

>  <i_i_glide_rotatable_bonds>  (133) 
1

>  <r_i_docking_score>  (133) 
-2.28847

>  <r_i_glide_ligand_efficiency>  (133) 
-0.0738216

>  <r_i_glide_ligand_efficiency_sa>  (133) 
-0.231902

>  <r_i_glide_ligand_efficiency_ln>  (133) 
-0.51612

>  <r_i_glide_gscore>  (133) 
-2.28847

>  <r_i_glide_lipo>  (133) 
-0.189351

>  <r_i_glide_hbond>  (133) 
0

>  <r_i_glide_metal>  (133) 
-0

>  <r_i_glide_rewards>  (133) 
-0.569258

>  <r_i_glide_evdw>  (133) 
-28.7301

>  <r_i_glide_ecoul>  (133) 
-0.908218

>  <r_i_glide_erotb>  (133) 
0.113884

>  <r_i_glide_esite>  (133) 
-0.0710059

>  <r_i_glide_emodel>  (133) 
-33.9706

>  <r_i_glide_energy>  (133) 
-29.6384

>  <r_i_glide_einternal>  (133) 
0.0393695

>  <r_i_glide_intrahb_reward>  (133) 
-0

>  <i_i_glide_confnum>  (133) 
1

>  <i_i_glide_posenum>  (133) 
34

>  <r_i_glide_eff_state_penalty>  (133) 
0

>  <ligand_id>  (133) 
39

>  <original_smiles>  (133) 
CC12C=CC(=O)C=C1C(=O)CC1=C2CCC2C3CCC(=O)C3(C)C(c3ccoc3)C12C

>  <smiles>  (133) 
[H]C1=C([H])C2(C([H])([H])[H])C(=C([H])C1=O)C(=O)C([H])([H])C1=C2C([H])([H])C([H])([H])C2([H])C3([H])C([H])([H])C([H])([H])C(=O)C3(C([H])([H])[H])C([H])(c3c([H])oc([H])c3[H])C12C([H])([H])[H]

$$$$
40:0:0
     RDKit          3D

 67 70  0  0  1  0  0  0  0  0999 V2000
    4.9147    0.5022    4.1581 C   0  0  0  0  0  0  0  0  0  0  0  0
    5.3136   -0.6962    3.5002 O   0  0  0  0  0  0  0  0  0  0  0  0
    4.2834   -1.4117    2.8212 C   0  0  2  0  0  0  0  0  0  0  0  0
    3.4858   -2.2023    3.8870 C   0  0  0  0  0  0  0  0  0  0  0  0
    2.1703   -2.8775    3.4420 C   0  0  1  0  0  0  0  0  0  0  0  0
    1.2421   -2.9527    4.6858 C   0  0  0  0  0  0  0  0  0  0  0  0
    1.4356   -1.9525    2.6606 O   0  0  0  0  0  0  0  0  0  0  0  0
    2.3047   -4.2376    2.6384 C   0  0  2  0  0  0  0  0  0  0  0  0
    1.8350   -5.4791    3.4410 C   0  0  0  0  0  0  0  0  0  0  0  0
    0.6257   -5.7066    3.5094 O   0  0  0  0  0  0  0  0  0  0  0  0
    2.8459   -6.3711    4.0452 C   0  0  0  0  0  0  0  0  0  0  0  0
    2.3587   -7.4285    5.0192 C   0  0  0  0  0  0  0  0  0  0  0  0
    4.1386   -6.2320    3.6989 C   0  0  0  0  0  0  0  0  0  0  0  0
    4.6834   -5.2121    2.7187 C   0  0  1  0  0  0  0  0  0  0  0  0
    5.7689   -5.7810    2.0213 O   0  0  0  0  0  0  0  0  0  0  0  0
    3.6009   -4.5659    1.7621 C   0  0  1  0  0  0  0  0  0  0  0  0
    3.1513   -5.6911    0.7677 C   0  0  0  0  0  0  0  0  0  0  0  0
    4.1595   -3.3033    0.9170 C   0  0  2  0  0  0  0  0  0  0  0  0
    3.0152   -2.5612    0.1294 C   0  0  0  0  0  0  0  0  0  0  0  0
    3.2097   -2.6671   -1.3928 C   0  0  1  0  0  0  0  0  0  0  0  0
    3.4595   -1.3100   -2.0762 C   0  0  0  0  0  0  0  0  0  0  0  0
    4.3214   -3.6914   -1.5509 C   0  0  1  0  0  0  0  0  0  0  0  0
    4.9887   -3.7842   -2.9363 C   0  0  0  0  0  0  0  0  0  0  0  0
    5.1671   -3.6402   -0.2553 C   0  0  1  0  0  0  0  0  0  0  0  0
    6.3380   -2.6120   -0.1806 C   0  0  1  0  0  0  0  0  0  0  0  0
    7.6516   -3.2887    0.2501 C   0  0  0  0  0  0  0  0  0  0  0  0
    6.6489   -1.9785   -1.3963 O   0  0  0  0  0  0  0  0  0  0  0  0
    5.8897   -1.5461    0.8183 C   0  0  0  0  0  0  0  0  0  0  0  0
    5.0022   -2.3146    1.7951 C   0  0  1  0  0  0  0  0  0  0  0  0
    5.7956    0.9510    4.6163 H   0  0  0  0  0  0  0  0  0  0  0  0
    4.1934    0.3411    4.9568 H   0  0  0  0  0  0  0  0  0  0  0  0
    4.4805    1.2179    3.4643 H   0  0  0  0  0  0  0  0  0  0  0  0
    3.6526   -0.6827    2.3069 H   0  0  0  0  0  0  0  0  0  0  0  0
    4.1241   -2.9054    4.4141 H   0  0  0  0  0  0  0  0  0  0  0  0
    3.1936   -1.4917    4.6534 H   0  0  0  0  0  0  0  0  0  0  0  0
    1.6637   -3.5702    5.4782 H   0  0  0  0  0  0  0  0  0  0  0  0
    0.2490   -3.3311    4.4433 H   0  0  0  0  0  0  0  0  0  0  0  0
    1.0784   -1.9646    5.1188 H   0  0  0  0  0  0  0  0  0  0  0  0
    1.9062   -1.7644    1.8625 H   0  0  0  0  0  0  0  0  0  0  0  0
    1.4913   -4.1775    1.9225 H   0  0  0  0  0  0  0  0  0  0  0  0
    1.8932   -6.9719    5.8933 H   0  0  0  0  0  0  0  0  0  0  0  0
    3.1768   -8.0593    5.3692 H   0  0  0  0  0  0  0  0  0  0  0  0
    1.6233   -8.0832    4.5446 H   0  0  0  0  0  0  0  0  0  0  0  0
    4.8815   -6.8794    4.1499 H   0  0  0  0  0  0  0  0  0  0  0  0
    5.1096   -4.4841    3.4015 H   0  0  0  0  0  0  0  0  0  0  0  0
    5.4327   -6.4648    1.4639 H   0  0  0  0  0  0  0  0  0  0  0  0
    3.9631   -6.0638    0.1479 H   0  0  0  0  0  0  0  0  0  0  0  0
    2.3527   -5.3533    0.1050 H   0  0  0  0  0  0  0  0  0  0  0  0
    2.7744   -6.5846    1.2630 H   0  0  0  0  0  0  0  0  0  0  0  0
    2.0434   -2.9945    0.3356 H   0  0  0  0  0  0  0  0  0  0  0  0
    2.9293   -1.5128    0.4057 H   0  0  0  0  0  0  0  0  0  0  0  0
    2.2980   -3.0663   -1.8421 H   0  0  0  0  0  0  0  0  0  0  0  0
    4.3492   -0.8069   -1.6983 H   0  0  0  0  0  0  0  0  0  0  0  0
    2.6115   -0.6564   -1.9066 H   0  0  0  0  0  0  0  0  0  0  0  0
    3.5629   -1.4148   -3.1585 H   0  0  0  0  0  0  0  0  0  0  0  0
    3.8249   -4.6472   -1.4771 H   0  0  0  0  0  0  0  0  0  0  0  0
    5.3826   -2.8449   -3.3162 H   0  0  0  0  0  0  0  0  0  0  0  0
    4.2755   -4.1442   -3.6800 H   0  0  0  0  0  0  0  0  0  0  0  0
    5.8061   -4.4896   -2.8877 H   0  0  0  0  0  0  0  0  0  0  0  0
    5.6092   -4.6273   -0.1449 H   0  0  0  0  0  0  0  0  0  0  0  0
    7.5585   -3.7866    1.2144 H   0  0  0  0  0  0  0  0  0  0  0  0
    8.4638   -2.5630    0.3326 H   0  0  0  0  0  0  0  0  0  0  0  0
    7.9657   -4.0435   -0.4733 H   0  0  0  0  0  0  0  0  0  0  0  0
    6.8705   -2.6603   -2.0163 H   0  0  0  0  0  0  0  0  0  0  0  0
    6.7365   -1.0642    1.3077 H   0  0  0  0  0  0  0  0  0  0  0  0
    5.3128   -0.7614    0.3283 H   0  0  0  0  0  0  0  0  0  0  0  0
    5.7364   -2.8789    2.3577 H   0  0  0  0  0  0  0  0  0  0  0  0
  1  2  1  0
  1 30  1  0
  1 31  1  0
  1 32  1  0
  2  3  1  0
  3 29  1  0
  3  4  1  0
  3 33  1  6
  4  5  1  0
  4 34  1  0
  4 35  1  0
  5  6  1  0
  5  7  1  6
  5  8  1  0
  6 36  1  0
  6 37  1  0
  6 38  1  0
  7 39  1  0
  8 16  1  0
  8  9  1  0
  8 40  1  6
  9 10  2  0
  9 11  1  0
 11 12  1  0
 11 13  2  0
 12 41  1  0
 12 42  1  0
 12 43  1  0
 13 14  1  0
 13 44  1  0
 14 15  1  0
 14 16  1  0
 14 45  1  1
 15 46  1  0
 16 17  1  6
 16 18  1  0
 17 47  1  0
 17 48  1  0
 17 49  1  0
 18 24  1  0
 18 29  1  0
 18 19  1  6
 19 20  1  0
 19 50  1  0
 19 51  1  0
 20 21  1  0
 20 22  1  0
 20 52  1  6
 21 53  1  0
 21 54  1  0
 21 55  1  0
 22 23  1  0
 22 24  1  0
 22 56  1  1
 23 57  1  0
 23 58  1  0
 23 59  1  0
 24 25  1  0
 24 60  1  1
 25 26  1  0
 25 27  1  6
 25 28  1  0
 26 61  1  0
 26 62  1  0
 26 63  1  0
 27 64  1  0
 28 29  1  0
 28 65  1  0
 28 66  1  0
 29 67  1  1
M  END
>  <i_m_ct_stereo_status>  (134) 
1

>  <s_m_source_file>  (134) 
/var/tmp/pbs.5076255.sched01/tmpbrsd6n1o/39u_ie0p0h.sdf

>  <i_m_source_file_index>  (134) 
13

>  <i_lp_mmshare_version>  (134) 
48012

>  <i_f3d_flags>  (134) 
0

>  <s_epik_input>  (134) 
W0NIMl0xW0NAQEhdKFtDSDNdKVtDQEBIXShbQ0gzXSlbQ0BIXTJbQ0BAXShbQ0gzXSkoW09IXSlbQ0gyXVtDQEhdM1tDQEhdKE9bQ0gzXSlbQ0gyXVtDQEBdKFtDSDNdKShbT0hdKVtDQEBIXShbQ0BdNChbQ0BdMTIzKVtDSDNdKUMoPU8pQyhbQ0gzXSk9W0NIXVtDQEhdNFtPSF0=

>  <s_epik_cmdline>  (134) 
J2VwaWtfcHl0aG9uJywgJy1waHQnLCAnMi4wJywgJy1waCcsICc3LjAnLCAnLXRuJywgJzgnLCAnLW1hJywgJzIwMCcsICctaW1hZScsICc8aW5maWxlLm1hZT4nLCAnLW9tYWUnLCAnPG91dGZpbGUubWFlPic=

>  <r_lp_tautomer_probability>  (134) 
1

>  <r_epik_Ionization_Penalty>  (134) 
2.41376e-06

>  <r_epik_Ionization_Penalty_Charging>  (134) 
0

>  <r_epik_Ionization_Penalty_Neutral>  (134) 
2.41376e-06

>  <r_epik_State_Penalty>  (134) 
-0

>  <r_epik_Charging_Adjusted_Penalty>  (134) 
0

>  <i_epik_Tot_Q>  (134) 
0

>  <i_epik_Tot_abs_Q>  (134) 
0

>  <s_lp_Force_Field>  (134) 
OPLS3e

>  <r_lp_Energy>  (134) 
50.2217

>  <b_lp_Chiralities_Consistent>  (134) 
1

>  <s_lp_Variant>  (134) 
40:0-1

>  <s_i_glide_gridfile>  (134) 
pfpi4k_grid

>  <i_i_glide_lignum>  (134) 
13

>  <i_i_glide_rotatable_bonds>  (134) 
4

>  <r_i_docking_score>  (134) 
-2.92856

>  <r_i_glide_ligand_efficiency>  (134) 
-0.100985

>  <r_i_glide_ligand_efficiency_sa>  (134) 
-0.310257

>  <r_i_glide_ligand_efficiency_ln>  (134) 
-0.670565

>  <r_i_glide_gscore>  (134) 
-2.92856

>  <r_i_glide_lipo>  (134) 
-0.593294

>  <r_i_glide_hbond>  (134) 
-0.164911

>  <r_i_glide_metal>  (134) 
-0

>  <r_i_glide_rewards>  (134) 
-0.637121

>  <r_i_glide_evdw>  (134) 
-19.5016

>  <r_i_glide_ecoul>  (134) 
-3.67648

>  <r_i_glide_erotb>  (134) 
0

>  <r_i_glide_esite>  (134) 
-0.00667785

>  <r_i_glide_emodel>  (134) 
-27.6464

>  <r_i_glide_energy>  (134) 
-23.1781

>  <r_i_glide_einternal>  (134) 
0.447345

>  <r_i_glide_intrahb_reward>  (134) 
-0

>  <i_i_glide_confnum>  (134) 
1

>  <i_i_glide_posenum>  (134) 
35

>  <r_i_glide_eff_state_penalty>  (134) 
0

>  <ligand_id>  (134) 
40

>  <original_smiles>  (134) 
COC1CC(C)(O)C2C(=O)C(C)=CC(O)C2(C)C23CC(C)C(C)C2C(C)(O)CC13

>  <smiles>  (134) 
[H]OC1([H])C([H])=C(C([H])([H])[H])C(=O)C2([H])C(O[H])(C([H])([H])[H])C([H])([H])C([H])(OC([H])([H])[H])C3([H])C([H])([H])C(O[H])(C([H])([H])[H])C4([H])C([H])(C([H])([H])[H])C([H])(C([H])([H])[H])C([H])([H])C34C12C([H])([H])[H]

$$$$
40:0:1
     RDKit          3D

 67 70  0  0  1  0  0  0  0  0999 V2000
    6.0303   -0.2913    3.7320 C   0  0  0  0  0  0  0  0  0  0  0  0
    5.0563    0.1506    2.8117 O   0  0  0  0  0  0  0  0  0  0  0  0
    4.1480   -0.7968    2.2618 C   0  0  2  0  0  0  0  0  0  0  0  0
    3.3198   -1.3995    3.4138 C   0  0  0  0  0  0  0  0  0  0  0  0
    2.0311   -2.1618    3.0709 C   0  0  1  0  0  0  0  0  0  0  0  0
    1.1155   -2.0711    4.3208 C   0  0  0  0  0  0  0  0  0  0  0  0
    1.2734   -1.3935    2.1474 O   0  0  0  0  0  0  0  0  0  0  0  0
    2.2452   -3.6298    2.5154 C   0  0  2  0  0  0  0  0  0  0  0  0
    1.8357   -4.7418    3.5264 C   0  0  0  0  0  0  0  0  0  0  0  0
    0.6478   -5.0140    3.6587 O   0  0  0  0  0  0  0  0  0  0  0  0
    2.8854   -5.4757    4.2568 C   0  0  0  0  0  0  0  0  0  0  0  0
    2.4354   -6.3841    5.3886 C   0  0  0  0  0  0  0  0  0  0  0  0
    4.1727   -5.3486    3.8869 C   0  0  0  0  0  0  0  0  0  0  0  0
    4.6713   -4.4779    2.7550 C   0  0  1  0  0  0  0  0  0  0  0  0
    5.7862   -5.1012    2.1592 O   0  0  0  0  0  0  0  0  0  0  0  0
    3.5636   -4.0461    1.7009 C   0  0  1  0  0  0  0  0  0  0  0  0
    3.1667   -5.3353    0.9061 C   0  0  0  0  0  0  0  0  0  0  0  0
    4.0780   -2.9411    0.6407 C   0  0  2  0  0  0  0  0  0  0  0  0
    2.9071   -2.3695   -0.2325 C   0  0  0  0  0  0  0  0  0  0  0  0
    3.1053   -2.6934   -1.7265 C   0  0  1  0  0  0  0  0  0  0  0  0
    3.3033   -1.4362   -2.6016 C   0  0  0  0  0  0  0  0  0  0  0  0
    4.2687   -3.6777   -1.7299 C   0  0  1  0  0  0  0  0  0  0  0  0
    4.9605   -3.9513   -3.0690 C   0  0  0  0  0  0  0  0  0  0  0  0
    5.1068   -3.4032   -0.4643 C   0  0  1  0  0  0  0  0  0  0  0  0
    6.2328   -2.3267   -0.5324 C   0  0  1  0  0  0  0  0  0  0  0  0
    7.5721   -2.8646    0.0047 C   0  0  0  0  0  0  0  0  0  0  0  0
    6.5667   -1.8753   -1.8165 O   0  0  0  0  0  0  0  0  0  0  0  0
    5.7118   -1.1442    0.2596 C   0  0  0  0  0  0  0  0  0  0  0  0
    4.8834   -1.8074    1.3441 C   0  0  1  0  0  0  0  0  0  0  0  0
    6.7185    0.5122    4.0127 H   0  0  0  0  0  0  0  0  0  0  0  0
    6.6242   -1.0627    3.2602 H   0  0  0  0  0  0  0  0  0  0  0  0
    5.6030   -0.7386    4.6343 H   0  0  0  0  0  0  0  0  0  0  0  0
    3.4992   -0.1639    1.6564 H   0  0  0  0  0  0  0  0  0  0  0  0
    3.9145   -2.0242    4.0741 H   0  0  0  0  0  0  0  0  0  0  0  0
    3.0358   -0.5397    4.0086 H   0  0  0  0  0  0  0  0  0  0  0  0
    1.5687   -2.5365    5.1952 H   0  0  0  0  0  0  0  0  0  0  0  0
    0.1407   -2.5301    4.1556 H   0  0  0  0  0  0  0  0  0  0  0  0
    0.9194   -1.0359    4.5927 H   0  0  0  0  0  0  0  0  0  0  0  0
    1.7498   -1.2926    1.3306 H   0  0  0  0  0  0  0  0  0  0  0  0
    1.4343   -3.7293    1.7977 H   0  0  0  0  0  0  0  0  0  0  0  0
    1.9440   -5.8110    6.1737 H   0  0  0  0  0  0  0  0  0  0  0  0
    3.2748   -6.9139    5.8393 H   0  0  0  0  0  0  0  0  0  0  0  0
    1.7320   -7.1352    5.0286 H   0  0  0  0  0  0  0  0  0  0  0  0
    4.9430   -5.8739    4.4332 H   0  0  0  0  0  0  0  0  0  0  0  0
    5.0499   -3.6390    3.3205 H   0  0  0  0  0  0  0  0  0  0  0  0
    5.4813   -5.9025    1.7532 H   0  0  0  0  0  0  0  0  0  0  0  0
    4.0038   -5.7618    0.3516 H   0  0  0  0  0  0  0  0  0  0  0  0
    2.3594   -5.1372    0.1923 H   0  0  0  0  0  0  0  0  0  0  0  0
    2.8279   -6.1519    1.5449 H   0  0  0  0  0  0  0  0  0  0  0  0
    1.9410   -2.7938    0.0427 H   0  0  0  0  0  0  0  0  0  0  0  0
    2.8113   -1.2904   -0.1110 H   0  0  0  0  0  0  0  0  0  0  0  0
    2.2097   -3.1994   -2.1058 H   0  0  0  0  0  0  0  0  0  0  0  0
    4.1918   -0.8706   -2.3257 H   0  0  0  0  0  0  0  0  0  0  0  0
    2.4532   -0.7596   -2.5088 H   0  0  0  0  0  0  0  0  0  0  0  0
    3.3894   -1.6991   -3.6576 H   0  0  0  0  0  0  0  0  0  0  0  0
    3.8228   -4.6353   -1.4974 H   0  0  0  0  0  0  0  0  0  0  0  0
    5.2786   -3.0528   -3.5912 H   0  0  0  0  0  0  0  0  0  0  0  0
    4.2867   -4.4645   -3.7466 H   0  0  0  0  0  0  0  0  0  0  0  0
    5.7936   -4.6212   -2.8905 H   0  0  0  0  0  0  0  0  0  0  0  0
    5.5774   -4.3390   -0.1902 H   0  0  0  0  0  0  0  0  0  0  0  0
    7.4993   -3.2008    1.0328 H   0  0  0  0  0  0  0  0  0  0  0  0
    8.3455   -2.1031   -0.0290 H   0  0  0  0  0  0  0  0  0  0  0  0
    7.9263   -3.7105   -0.5777 H   0  0  0  0  0  0  0  0  0  0  0  0
    6.7869   -2.6417   -2.3206 H   0  0  0  0  0  0  0  0  0  0  0  0
    6.5265   -0.5589    0.6792 H   0  0  0  0  0  0  0  0  0  0  0  0
    5.1240   -0.4649   -0.3648 H   0  0  0  0  0  0  0  0  0  0  0  0
    5.6446   -2.3009    1.9442 H   0  0  0  0  0  0  0  0  0  0  0  0
  1  2  1  0
  1 30  1  0
  1 31  1  0
  1 32  1  0
  2  3  1  0
  3 29  1  0
  3  4  1  0
  3 33  1  6
  4  5  1  0
  4 34  1  0
  4 35  1  0
  5  6  1  0
  5  7  1  6
  5  8  1  0
  6 36  1  0
  6 37  1  0
  6 38  1  0
  7 39  1  0
  8 16  1  0
  8  9  1  0
  8 40  1  6
  9 10  2  0
  9 11  1  0
 11 12  1  0
 11 13  2  0
 12 41  1  0
 12 42  1  0
 12 43  1  0
 13 14  1  0
 13 44  1  0
 14 15  1  0
 14 16  1  0
 14 45  1  1
 15 46  1  0
 16 17  1  6
 16 18  1  0
 17 47  1  0
 17 48  1  0
 17 49  1  0
 18 24  1  0
 18 29  1  0
 18 19  1  6
 19 20  1  0
 19 50  1  0
 19 51  1  0
 20 21  1  0
 20 22  1  0
 20 52  1  6
 21 53  1  0
 21 54  1  0
 21 55  1  0
 22 23  1  0
 22 24  1  0
 22 56  1  1
 23 57  1  0
 23 58  1  0
 23 59  1  0
 24 25  1  0
 24 60  1  1
 25 26  1  0
 25 27  1  6
 25 28  1  0
 26 61  1  0
 26 62  1  0
 26 63  1  0
 27 64  1  0
 28 29  1  0
 28 65  1  0
 28 66  1  0
 29 67  1  1
M  END
>  <i_m_ct_stereo_status>  (135) 
1

>  <s_m_source_file>  (135) 
/var/tmp/pbs.5076255.sched01/tmpbrsd6n1o/39u_ie0p0h.sdf

>  <i_m_source_file_index>  (135) 
13

>  <i_lp_mmshare_version>  (135) 
48012

>  <i_f3d_flags>  (135) 
0

>  <s_epik_input>  (135) 
W0NIMl0xW0NAQEhdKFtDSDNdKVtDQEBIXShbQ0gzXSlbQ0BIXTJbQ0BAXShbQ0gzXSkoW09IXSlbQ0gyXVtDQEhdM1tDQEhdKE9bQ0gzXSlbQ0gyXVtDQEBdKFtDSDNdKShbT0hdKVtDQEBIXShbQ0BdNChbQ0BdMTIzKVtDSDNdKUMoPU8pQyhbQ0gzXSk9W0NIXVtDQEhdNFtPSF0=

>  <s_epik_cmdline>  (135) 
J2VwaWtfcHl0aG9uJywgJy1waHQnLCAnMi4wJywgJy1waCcsICc3LjAnLCAnLXRuJywgJzgnLCAnLW1hJywgJzIwMCcsICctaW1hZScsICc8aW5maWxlLm1hZT4nLCAnLW9tYWUnLCAnPG91dGZpbGUubWFlPic=

>  <r_lp_tautomer_probability>  (135) 
1

>  <r_epik_Ionization_Penalty>  (135) 
2.41376e-06

>  <r_epik_Ionization_Penalty_Charging>  (135) 
0

>  <r_epik_Ionization_Penalty_Neutral>  (135) 
2.41376e-06

>  <r_epik_State_Penalty>  (135) 
-0

>  <r_epik_Charging_Adjusted_Penalty>  (135) 
0

>  <i_epik_Tot_Q>  (135) 
0

>  <i_epik_Tot_abs_Q>  (135) 
0

>  <s_lp_Force_Field>  (135) 
OPLS3e

>  <r_lp_Energy>  (135) 
50.2217

>  <b_lp_Chiralities_Consistent>  (135) 
1

>  <s_lp_Variant>  (135) 
40:0-1

>  <s_i_glide_gridfile>  (135) 
pfpi4k_grid

>  <i_i_glide_lignum>  (135) 
13

>  <i_i_glide_rotatable_bonds>  (135) 
4

>  <r_i_docking_score>  (135) 
-2.69188

>  <r_i_glide_ligand_efficiency>  (135) 
-0.0928236

>  <r_i_glide_ligand_efficiency_sa>  (135) 
-0.285184

>  <r_i_glide_ligand_efficiency_ln>  (135) 
-0.616373

>  <r_i_glide_gscore>  (135) 
-2.69188

>  <r_i_glide_lipo>  (135) 
-0.453254

>  <r_i_glide_hbond>  (135) 
-0.285436

>  <r_i_glide_metal>  (135) 
-0

>  <r_i_glide_rewards>  (135) 
-0.637121

>  <r_i_glide_evdw>  (135) 
-13.39

>  <r_i_glide_ecoul>  (135) 
-4.28082

>  <r_i_glide_erotb>  (135) 
0

>  <r_i_glide_esite>  (135) 
-0.00445138

>  <r_i_glide_emodel>  (135) 
-18.4909

>  <r_i_glide_energy>  (135) 
-17.6708

>  <r_i_glide_einternal>  (135) 
6.6958

>  <r_i_glide_intrahb_reward>  (135) 
-0

>  <i_i_glide_confnum>  (135) 
1

>  <i_i_glide_posenum>  (135) 
1

>  <r_i_glide_eff_state_penalty>  (135) 
0

>  <ligand_id>  (135) 
40

>  <original_smiles>  (135) 
COC1CC(C)(O)C2C(=O)C(C)=CC(O)C2(C)C23CC(C)C(C)C2C(C)(O)CC13

>  <smiles>  (135) 
[H]OC1([H])C([H])=C(C([H])([H])[H])C(=O)C2([H])C(O[H])(C([H])([H])[H])C([H])([H])C([H])(OC([H])([H])[H])C3([H])C([H])([H])C(O[H])(C([H])([H])[H])C4([H])C([H])(C([H])([H])[H])C([H])(C([H])([H])[H])C([H])([H])C34C12C([H])([H])[H]

$$$$
40:0:2
     RDKit          3D

 67 70  0  0  1  0  0  0  0  0999 V2000
    5.7280   -0.2455    4.1781 C   0  0  0  0  0  0  0  0  0  0  0  0
    4.9420    0.1479    3.0610 O   0  0  0  0  0  0  0  0  0  0  0  0
    4.0248   -0.8011    2.5067 C   0  0  2  0  0  0  0  0  0  0  0  0
    3.2125   -1.4320    3.6633 C   0  0  0  0  0  0  0  0  0  0  0  0
    1.9545   -2.2375    3.3365 C   0  0  1  0  0  0  0  0  0  0  0  0
    1.0447   -2.1677    4.5947 C   0  0  0  0  0  0  0  0  0  0  0  0
    1.1854   -1.5037    2.4109 O   0  0  0  0  0  0  0  0  0  0  0  0
    2.2135   -3.7003    2.7777 C   0  0  2  0  0  0  0  0  0  0  0  0
    1.8240   -4.8242    3.7785 C   0  0  0  0  0  0  0  0  0  0  0  0
    0.6373   -5.1162    3.8981 O   0  0  0  0  0  0  0  0  0  0  0  0
    2.8934   -5.5360    4.5124 C   0  0  0  0  0  0  0  0  0  0  0  0
    2.4682   -6.4557    5.6457 C   0  0  0  0  0  0  0  0  0  0  0  0
    4.1743   -5.3755    4.1397 C   0  0  0  0  0  0  0  0  0  0  0  0
    4.6577   -4.4956    3.0032 C   0  0  1  0  0  0  0  0  0  0  0  0
    5.7832   -5.0978    2.4078 O   0  0  0  0  0  0  0  0  0  0  0  0
    3.5338   -4.0840    1.9613 C   0  0  1  0  0  0  0  0  0  0  0  0
    3.1658   -5.3864    1.1663 C   0  0  0  0  0  0  0  0  0  0  0  0
    4.0147   -2.9532    0.9057 C   0  0  2  0  0  0  0  0  0  0  0  0
    2.8279   -2.4158    0.0274 C   0  0  0  0  0  0  0  0  0  0  0  0
    3.0320   -2.7322   -1.4668 C   0  0  1  0  0  0  0  0  0  0  0  0
    3.2021   -1.4828   -2.3630 C   0  0  0  0  0  0  0  0  0  0  0  0
    4.2065   -3.6996   -1.4668 C   0  0  1  0  0  0  0  0  0  0  0  0
    4.9005   -3.9687   -2.8161 C   0  0  0  0  0  0  0  0  0  0  0  0
    5.0489   -3.4061   -0.2005 C   0  0  1  0  0  0  0  0  0  0  0  0
    6.1584   -2.3059   -0.2904 C   0  0  1  0  0  0  0  0  0  0  0  0
    7.5086   -2.8143    0.2457 C   0  0  0  0  0  0  0  0  0  0  0  0
    6.4654   -1.8548   -1.5789 O   0  0  0  0  0  0  0  0  0  0  0  0
    5.6242   -1.1223    0.5122 C   0  0  0  0  0  0  0  0  0  0  0  0
    4.7926   -1.7935    1.6003 C   0  0  1  0  0  0  0  0  0  0  0  0
    6.5025    0.4878    4.4123 H   0  0  0  0  0  0  0  0  0  0  0  0
    6.2154   -1.1768    3.9380 H   0  0  0  0  0  0  0  0  0  0  0  0
    5.1340   -0.3853    5.0816 H   0  0  0  0  0  0  0  0  0  0  0  0
    3.3662   -0.1891    1.8873 H   0  0  0  0  0  0  0  0  0  0  0  0
    3.8240   -2.0622    4.3001 H   0  0  0  0  0  0  0  0  0  0  0  0
    2.9107   -0.5846    4.2795 H   0  0  0  0  0  0  0  0  0  0  0  0
    1.5115   -2.6208    5.4699 H   0  0  0  0  0  0  0  0  0  0  0  0
    0.0794   -2.6464    4.4340 H   0  0  0  0  0  0  0  0  0  0  0  0
    0.8238   -1.1364    4.8740 H   0  0  0  0  0  0  0  0  0  0  0  0
    1.1363   -0.6004    2.6973 H   0  0  0  0  0  0  0  0  0  0  0  0
    1.4132   -3.8206    2.0603 H   0  0  0  0  0  0  0  0  0  0  0  0
    1.9709   -5.8914    6.4337 H   0  0  0  0  0  0  0  0  0  0  0  0
    3.3261   -6.9652    6.0823 H   0  0  0  0  0  0  0  0  0  0  0  0
    1.7805   -7.2201    5.2839 H   0  0  0  0  0  0  0  0  0  0  0  0
    4.9522   -5.8891    4.6867 H   0  0  0  0  0  0  0  0  0  0  0  0
    5.0358   -3.6405    3.5495 H   0  0  0  0  0  0  0  0  0  0  0  0
    5.4987   -5.8985    1.9769 H   0  0  0  0  0  0  0  0  0  0  0  0
    4.0062   -5.8004    0.6102 H   0  0  0  0  0  0  0  0  0  0  0  0
    2.3505   -5.2135    0.4589 H   0  0  0  0  0  0  0  0  0  0  0  0
    2.8446   -6.2116    1.8013 H   0  0  0  0  0  0  0  0  0  0  0  0
    1.8812   -2.8676    0.3088 H   0  0  0  0  0  0  0  0  0  0  0  0
    2.6739   -1.3464    0.1578 H   0  0  0  0  0  0  0  0  0  0  0  0
    2.1511   -3.2619   -1.8397 H   0  0  0  0  0  0  0  0  0  0  0  0
    4.0608   -0.8794   -2.0763 H   0  0  0  0  0  0  0  0  0  0  0  0
    2.3263   -0.8337   -2.3251 H   0  0  0  0  0  0  0  0  0  0  0  0
    3.3124   -1.7659   -3.4106 H   0  0  0  0  0  0  0  0  0  0  0  0
    3.7570   -4.6558   -1.2277 H   0  0  0  0  0  0  0  0  0  0  0  0
    5.2342   -3.0796   -3.3486 H   0  0  0  0  0  0  0  0  0  0  0  0
    4.2392   -4.4900   -3.5057 H   0  0  0  0  0  0  0  0  0  0  0  0
    5.7576   -4.6160   -2.6487 H   0  0  0  0  0  0  0  0  0  0  0  0
    5.5467   -4.3322    0.0681 H   0  0  0  0  0  0  0  0  0  0  0  0
    7.4397   -3.1545    1.2783 H   0  0  0  0  0  0  0  0  0  0  0  0
    8.2651   -2.0313    0.1968 H   0  0  0  0  0  0  0  0  0  0  0  0
    7.8664   -3.6503   -0.3553 H   0  0  0  0  0  0  0  0  0  0  0  0
    5.6555   -1.8869   -2.0792 H   0  0  0  0  0  0  0  0  0  0  0  0
    6.4320   -0.5163    0.9227 H   0  0  0  0  0  0  0  0  0  0  0  0
    5.0053   -0.4560   -0.0927 H   0  0  0  0  0  0  0  0  0  0  0  0
    5.5634   -2.2474    2.2038 H   0  0  0  0  0  0  0  0  0  0  0  0
  1  2  1  0
  1 30  1  0
  1 31  1  0
  1 32  1  0
  2  3  1  0
  3 29  1  0
  3  4  1  0
  3 33  1  6
  4  5  1  0
  4 34  1  0
  4 35  1  0
  5  6  1  0
  5  7  1  6
  5  8  1  0
  6 36  1  0
  6 37  1  0
  6 38  1  0
  7 39  1  0
  8 16  1  0
  8  9  1  0
  8 40  1  6
  9 10  2  0
  9 11  1  0
 11 12  1  0
 11 13  2  0
 12 41  1  0
 12 42  1  0
 12 43  1  0
 13 14  1  0
 13 44  1  0
 14 15  1  0
 14 16  1  0
 14 45  1  1
 15 46  1  0
 16 17  1  6
 16 18  1  0
 17 47  1  0
 17 48  1  0
 17 49  1  0
 18 24  1  0
 18 29  1  0
 18 19  1  6
 19 20  1  0
 19 50  1  0
 19 51  1  0
 20 21  1  0
 20 22  1  0
 20 52  1  6
 21 53  1  0
 21 54  1  0
 21 55  1  0
 22 23  1  0
 22 24  1  0
 22 56  1  1
 23 57  1  0
 23 58  1  0
 23 59  1  0
 24 25  1  0
 24 60  1  1
 25 26  1  0
 25 27  1  6
 25 28  1  0
 26 61  1  0
 26 62  1  0
 26 63  1  0
 27 64  1  0
 28 29  1  0
 28 65  1  0
 28 66  1  0
 29 67  1  1
M  END
>  <i_m_ct_stereo_status>  (136) 
1

>  <s_m_source_file>  (136) 
/var/tmp/pbs.5076255.sched01/tmpbrsd6n1o/39u_ie0p0h.sdf

>  <i_m_source_file_index>  (136) 
13

>  <i_lp_mmshare_version>  (136) 
48012

>  <i_f3d_flags>  (136) 
0

>  <s_epik_input>  (136) 
W0NIMl0xW0NAQEhdKFtDSDNdKVtDQEBIXShbQ0gzXSlbQ0BIXTJbQ0BAXShbQ0gzXSkoW09IXSlbQ0gyXVtDQEhdM1tDQEhdKE9bQ0gzXSlbQ0gyXVtDQEBdKFtDSDNdKShbT0hdKVtDQEBIXShbQ0BdNChbQ0BdMTIzKVtDSDNdKUMoPU8pQyhbQ0gzXSk9W0NIXVtDQEhdNFtPSF0=

>  <s_epik_cmdline>  (136) 
J2VwaWtfcHl0aG9uJywgJy1waHQnLCAnMi4wJywgJy1waCcsICc3LjAnLCAnLXRuJywgJzgnLCAnLW1hJywgJzIwMCcsICctaW1hZScsICc8aW5maWxlLm1hZT4nLCAnLW9tYWUnLCAnPG91dGZpbGUubWFlPic=

>  <r_lp_tautomer_probability>  (136) 
1

>  <r_epik_Ionization_Penalty>  (136) 
2.41376e-06

>  <r_epik_Ionization_Penalty_Charging>  (136) 
0

>  <r_epik_Ionization_Penalty_Neutral>  (136) 
2.41376e-06

>  <r_epik_State_Penalty>  (136) 
-0

>  <r_epik_Charging_Adjusted_Penalty>  (136) 
0

>  <i_epik_Tot_Q>  (136) 
0

>  <i_epik_Tot_abs_Q>  (136) 
0

>  <s_lp_Force_Field>  (136) 
OPLS3e

>  <r_lp_Energy>  (136) 
50.2217

>  <b_lp_Chiralities_Consistent>  (136) 
1

>  <s_lp_Variant>  (136) 
40:0-1

>  <s_i_glide_gridfile>  (136) 
pfpi4k_grid

>  <i_i_glide_lignum>  (136) 
13

>  <i_i_glide_rotatable_bonds>  (136) 
4

>  <r_i_docking_score>  (136) 
-2.39461

>  <r_i_glide_ligand_efficiency>  (136) 
-0.0825726

>  <r_i_glide_ligand_efficiency_sa>  (136) 
-0.253689

>  <r_i_glide_ligand_efficiency_ln>  (136) 
-0.548304

>  <r_i_glide_gscore>  (136) 
-2.39461

>  <r_i_glide_lipo>  (136) 
-0.469702

>  <r_i_glide_hbond>  (136) 
-0.208027

>  <r_i_glide_metal>  (136) 
-0

>  <r_i_glide_rewards>  (136) 
-0.637121

>  <r_i_glide_evdw>  (136) 
-15.9995

>  <r_i_glide_ecoul>  (136) 
-1.84151

>  <r_i_glide_erotb>  (136) 
0

>  <r_i_glide_esite>  (136) 
-0.00355267

>  <r_i_glide_emodel>  (136) 
-18.3395

>  <r_i_glide_energy>  (136) 
-17.841

>  <r_i_glide_einternal>  (136) 
5.96723

>  <r_i_glide_intrahb_reward>  (136) 
-0

>  <i_i_glide_confnum>  (136) 
2

>  <i_i_glide_posenum>  (136) 
5

>  <r_i_glide_eff_state_penalty>  (136) 
0

>  <ligand_id>  (136) 
40

>  <original_smiles>  (136) 
COC1CC(C)(O)C2C(=O)C(C)=CC(O)C2(C)C23CC(C)C(C)C2C(C)(O)CC13

>  <smiles>  (136) 
[H]OC1([H])C([H])=C(C([H])([H])[H])C(=O)C2([H])C(O[H])(C([H])([H])[H])C([H])([H])C([H])(OC([H])([H])[H])C3([H])C([H])([H])C(O[H])(C([H])([H])[H])C4([H])C([H])(C([H])([H])[H])C([H])(C([H])([H])[H])C([H])([H])C34C12C([H])([H])[H]

$$$$
41:0:0
     RDKit          3D

 48 52  0  0  1  0  0  0  0  0999 V2000
    3.0394   -1.4369    4.4932 C   0  0  0  0  0  0  0  0  0  0  0  0
    3.7352   -2.4079    3.8796 C   0  0  0  0  0  0  0  0  0  0  0  0
    4.1612   -3.6945    4.5446 C   0  0  0  0  0  0  0  0  0  0  0  0
    4.5958   -4.5900    3.3756 C   0  0  1  0  0  0  0  0  0  0  0  0
    3.4200   -5.2902    2.6275 C   0  0  1  0  0  0  0  0  0  0  0  0
    2.6574   -6.3140    3.4953 C   0  0  0  0  0  0  0  0  0  0  0  0
    2.4247   -4.2841    1.9905 C   0  0  0  0  0  0  0  0  0  0  0  0
    3.0130   -2.9222    1.5125 C   0  0  2  0  0  0  0  0  0  0  0  0
    3.3261   -2.7412   -0.0047 C   0  0  2  0  0  0  0  0  0  0  0  0
    3.0523   -3.8352   -1.0250 C   0  0  0  0  0  0  0  0  0  0  0  0
    3.8207   -3.3859   -2.2858 C   0  0  0  0  0  0  0  0  0  0  0  0
    4.7138   -2.1892   -1.8839 C   0  0  1  0  0  0  0  0  0  0  0  0
    4.1667   -0.8837   -2.4968 C   0  0  0  0  0  0  0  0  0  0  0  0
    4.7527   -2.2581   -0.3273 C   0  0  2  0  0  0  0  0  0  0  0  0
    5.8481   -3.2989    0.0844 C   0  0  0  0  0  0  0  0  0  0  0  0
    5.4816   -4.1591    1.1521 O   0  0  0  0  0  0  0  0  0  0  0  0
    5.2311   -3.5604    2.4196 C   0  0  1  0  0  0  0  0  0  0  0  0
    4.1783   -2.4375    2.4179 C   0  0  2  0  0  0  0  0  0  0  0  0
    4.8418   -1.1229    1.9433 C   0  0  0  0  0  0  0  0  0  0  0  0
    5.3050   -0.2930    2.7285 O   0  0  0  0  0  0  0  0  0  0  0  0
    4.9405   -0.9166    0.4257 C   0  0  1  0  0  0  0  0  0  0  0  0
    6.1430   -0.2686    0.0800 O   0  0  0  0  0  0  0  0  0  0  0  0
    2.7366   -0.5378    3.9692 H   0  0  0  0  0  0  0  0  0  0  0  0
    2.7669   -1.5223    5.5384 H   0  0  0  0  0  0  0  0  0  0  0  0
    5.0178   -3.4756    5.1797 H   0  0  0  0  0  0  0  0  0  0  0  0
    3.3827   -4.1212    5.1711 H   0  0  0  0  0  0  0  0  0  0  0  0
    5.3302   -5.3307    3.6983 H   0  0  0  0  0  0  0  0  0  0  0  0
    3.8657   -5.8706    1.8198 H   0  0  0  0  0  0  0  0  0  0  0  0
    2.0856   -5.8289    4.2882 H   0  0  0  0  0  0  0  0  0  0  0  0
    3.3314   -7.0389    3.9574 H   0  0  0  0  0  0  0  0  0  0  0  0
    1.9436   -6.8703    2.8825 H   0  0  0  0  0  0  0  0  0  0  0  0
    1.9087   -4.7814    1.1718 H   0  0  0  0  0  0  0  0  0  0  0  0
    1.6444   -4.0682    2.7182 H   0  0  0  0  0  0  0  0  0  0  0  0
    2.1953   -2.2184    1.6829 H   0  0  0  0  0  0  0  0  0  0  0  0
    2.6628   -1.9336   -0.3142 H   0  0  0  0  0  0  0  0  0  0  0  0
    3.4460   -4.7901   -0.6795 H   0  0  0  0  0  0  0  0  0  0  0  0
    1.9876   -3.9575   -1.2259 H   0  0  0  0  0  0  0  0  0  0  0  0
    4.4338   -4.2135   -2.6492 H   0  0  0  0  0  0  0  0  0  0  0  0
    3.1300   -3.1317   -3.0923 H   0  0  0  0  0  0  0  0  0  0  0  0
    5.7169   -2.3284   -2.2938 H   0  0  0  0  0  0  0  0  0  0  0  0
    3.1550   -0.6634   -2.1542 H   0  0  0  0  0  0  0  0  0  0  0  0
    4.1309   -0.9525   -3.5850 H   0  0  0  0  0  0  0  0  0  0  0  0
    4.7993   -0.0307   -2.2585 H   0  0  0  0  0  0  0  0  0  0  0  0
    6.0416   -3.9845   -0.7398 H   0  0  0  0  0  0  0  0  0  0  0  0
    6.8065   -2.8205    0.2892 H   0  0  0  0  0  0  0  0  0  0  0  0
    6.1698   -3.1943    2.8413 H   0  0  0  0  0  0  0  0  0  0  0  0
    4.1330   -0.2396    0.1522 H   0  0  0  0  0  0  0  0  0  0  0  0
    5.9199    0.6416   -0.1382 H   0  0  0  0  0  0  0  0  0  0  0  0
  1  2  2  0
  1 23  1  0
  1 24  1  0
 18  2  1  1
  2  3  1  0
  3  4  1  0
  3 25  1  0
  3 26  1  0
  4 17  1  0
  4  5  1  0
  4 27  1  1
  5  6  1  0
  5  7  1  0
  5 28  1  6
  6 29  1  0
  6 30  1  0
  6 31  1  0
  7  8  1  0
  7 32  1  0
  7 33  1  0
  8 18  1  0
  8  9  1  0
  8 34  1  1
  9 14  1  0
  9 10  1  0
  9 35  1  6
 10 11  1  0
 10 36  1  0
 10 37  1  0
 11 12  1  0
 11 38  1  0
 11 39  1  0
 12 13  1  0
 12 14  1  0
 12 40  1  6
 13 41  1  0
 13 42  1  0
 13 43  1  0
 14 21  1  0
 14 15  1  6
 15 16  1  0
 15 44  1  0
 15 45  1  0
 16 17  1  0
 17 18  1  0
 17 46  1  1
 18 19  1  0
 19 20  2  0
 19 21  1  0
 21 22  1  0
 21 47  1  6
 22 48  1  0
M  END
>  <i_m_ct_stereo_status>  (137) 
1

>  <s_m_source_file>  (137) 
/var/tmp/pbs.5076255.sched01/tmpbrsd6n1o/39u_ie0p0h.sdf

>  <i_m_source_file_index>  (137) 
14

>  <i_lp_mmshare_version>  (137) 
48012

>  <i_f3d_flags>  (137) 
0

>  <s_epik_input>  (137) 
W0NIMl09QzFbQ0gyXVtDQEBIXShbQ0BASF0oW0NIM10pW0NIMl0yKVtDSF0oT1tDSDJdMylbQ0BAXTEoQyg9TylbQ0BIXTRbT0hdKVtDQEhdMltDQEBIXShbQ0BdMzQ1KVtDSDJdW0NIMl1bQ0BIXTVbQ0gzXQ==

>  <s_epik_cmdline>  (137) 
J2VwaWtfcHl0aG9uJywgJy1waHQnLCAnMi4wJywgJy1waCcsICc3LjAnLCAnLXRuJywgJzgnLCAnLW1hJywgJzIwMCcsICctaW1hZScsICc8aW5maWxlLm1hZT4nLCAnLW9tYWUnLCAnPG91dGZpbGUubWFlPic=

>  <r_lp_tautomer_probability>  (137) 
1

>  <r_epik_Ionization_Penalty>  (137) 
1.09442e-07

>  <r_epik_Ionization_Penalty_Charging>  (137) 
0

>  <r_epik_Ionization_Penalty_Neutral>  (137) 
1.09442e-07

>  <r_epik_State_Penalty>  (137) 
-0

>  <r_epik_Charging_Adjusted_Penalty>  (137) 
0

>  <i_epik_Tot_Q>  (137) 
0

>  <i_epik_Tot_abs_Q>  (137) 
0

>  <s_lp_Force_Field>  (137) 
OPLS3e

>  <r_lp_Energy>  (137) 
54.0827

>  <b_lp_Chiralities_Consistent>  (137) 
1

>  <s_lp_Variant>  (137) 
41:0-1

>  <s_i_glide_gridfile>  (137) 
pfpi4k_grid

>  <i_i_glide_lignum>  (137) 
14

>  <i_i_glide_rotatable_bonds>  (137) 
1

>  <r_i_docking_score>  (137) 
-3.4214

>  <r_i_glide_ligand_efficiency>  (137) 
-0.155518

>  <r_i_glide_ligand_efficiency_sa>  (137) 
-0.435768

>  <r_i_glide_ligand_efficiency_ln>  (137) 
-0.836314

>  <r_i_glide_gscore>  (137) 
-3.4214

>  <r_i_glide_lipo>  (137) 
-0.218984

>  <r_i_glide_hbond>  (137) 
-0.0597754

>  <r_i_glide_metal>  (137) 
-0

>  <r_i_glide_rewards>  (137) 
-1.46267

>  <r_i_glide_evdw>  (137) 
-18.4394

>  <r_i_glide_ecoul>  (137) 
-5.05327

>  <r_i_glide_erotb>  (137) 
0

>  <r_i_glide_esite>  (137) 
0

>  <r_i_glide_emodel>  (137) 
-26.9632

>  <r_i_glide_energy>  (137) 
-23.4927

>  <r_i_glide_einternal>  (137) 
2.60061

>  <r_i_glide_intrahb_reward>  (137) 
-0

>  <i_i_glide_confnum>  (137) 
1

>  <i_i_glide_posenum>  (137) 
11

>  <r_i_glide_eff_state_penalty>  (137) 
0

>  <ligand_id>  (137) 
41

>  <original_smiles>  (137) 
C=C1CC2C(C)CC3C4CCC(C)C45COC2C13C(=O)C5O

>  <smiles>  (137) 
[H]OC1([H])C(=O)C23C(=C([H])[H])C([H])([H])C4([H])C2([H])OC([H])([H])C12C([H])(C([H])([H])[H])C([H])([H])C([H])([H])C2([H])C3([H])C([H])([H])C4([H])C([H])([H])[H]

$$$$
41:0:1
     RDKit          3D

 48 52  0  0  1  0  0  0  0  0999 V2000
    3.1979   -1.6445    4.5895 C   0  0  0  0  0  0  0  0  0  0  0  0
    3.8073   -2.6742    3.9571 C   0  0  0  0  0  0  0  0  0  0  0  0
    4.0490   -4.0190    4.5888 C   0  0  0  0  0  0  0  0  0  0  0  0
    4.4305   -4.9171    3.3971 C   0  0  1  0  0  0  0  0  0  0  0  0
    3.2125   -5.4476    2.5871 C   0  0  1  0  0  0  0  0  0  0  0  0
    2.3083   -6.4075    3.3793 C   0  0  0  0  0  0  0  0  0  0  0  0
    2.3641   -4.3062    1.9576 C   0  0  0  0  0  0  0  0  0  0  0  0
    3.1209   -3.0065    1.5554 C   0  0  2  0  0  0  0  0  0  0  0  0
    3.5117   -2.8150    0.0557 C   0  0  2  0  0  0  0  0  0  0  0  0
    3.1612   -3.8384   -1.0141 C   0  0  0  0  0  0  0  0  0  0  0  0
    4.0238   -3.4328   -2.2275 C   0  0  0  0  0  0  0  0  0  0  0  0
    5.0224   -2.3603   -1.7423 C   0  0  1  0  0  0  0  0  0  0  0  0
    4.6417   -0.9866   -2.3174 C   0  0  0  0  0  0  0  0  0  0  0  0
    4.9945   -2.4832   -0.1918 C   0  0  2  0  0  0  0  0  0  0  0  0
    5.9467   -3.6586    0.2125 C   0  0  0  0  0  0  0  0  0  0  0  0
    5.4364   -4.5113    1.2213 O   0  0  0  0  0  0  0  0  0  0  0  0
    5.2102   -3.9382    2.5109 C   0  0  1  0  0  0  0  0  0  0  0  0
    4.2988   -2.7011    2.5138 C   0  0  2  0  0  0  0  0  0  0  0  0
    5.1194   -1.4480    2.1106 C   0  0  0  0  0  0  0  0  0  0  0  0
    5.6399   -0.6959    2.9381 O   0  0  0  0  0  0  0  0  0  0  0  0
    5.3079   -1.1981    0.6141 C   0  0  1  0  0  0  0  0  0  0  0  0
    6.6175   -0.7205    0.3576 O   0  0  0  0  0  0  0  0  0  0  0  0
    3.0270   -0.7069    4.0912 H   0  0  0  0  0  0  0  0  0  0  0  0
    2.8825   -1.7429    5.6139 H   0  0  0  0  0  0  0  0  0  0  0  0
    4.8985   -3.9226    5.2621 H   0  0  0  0  0  0  0  0  0  0  0  0
    3.1992   -4.3725    5.1718 H   0  0  0  0  0  0  0  0  0  0  0  0
    5.0581   -5.7535    3.7217 H   0  0  0  0  0  0  0  0  0  0  0  0
    3.6196   -6.0500    1.7606 H   0  0  0  0  0  0  0  0  0  0  0  0
    1.7650   -5.8871    4.1742 H   0  0  0  0  0  0  0  0  0  0  0  0
    2.8747   -7.2234    3.8400 H   0  0  0  0  0  0  0  0  0  0  0  0
    1.5581   -6.8561    2.7261 H   0  0  0  0  0  0  0  0  0  0  0  0
    1.8592   -4.7214    1.0977 H   0  0  0  0  0  0  0  0  0  0  0  0
    1.5717   -4.0345    2.6717 H   0  0  0  0  0  0  0  0  0  0  0  0
    2.3891   -2.2261    1.7157 H   0  0  0  0  0  0  0  0  0  0  0  0
    2.9635   -1.9229   -0.2482 H   0  0  0  0  0  0  0  0  0  0  0  0
    3.4329   -4.8440   -0.6934 H   0  0  0  0  0  0  0  0  0  0  0  0
    2.0979   -3.8318   -1.2575 H   0  0  0  0  0  0  0  0  0  0  0  0
    4.5672   -4.2986   -2.6059 H   0  0  0  0  0  0  0  0  0  0  0  0
    3.3984   -3.0697   -3.0483 H   0  0  0  0  0  0  0  0  0  0  0  0
    6.0210   -2.5944   -2.1268 H   0  0  0  0  0  0  0  0  0  0  0  0
    3.6542   -0.6574   -1.9911 H   0  0  0  0  0  0  0  0  0  0  0  0
    4.6360   -1.0057   -3.4079 H   0  0  0  0  0  0  0  0  0  0  0  0
    5.3754   -0.2440   -2.0163 H   0  0  0  0  0  0  0  0  0  0  0  0
    6.0975   -4.3283   -0.6348 H   0  0  0  0  0  0  0  0  0  0  0  0
    6.9456   -3.3062    0.4755 H   0  0  0  0  0  0  0  0  0  0  0  0
    6.1770   -3.7058    2.9677 H   0  0  0  0  0  0  0  0  0  0  0  0
    4.6045   -0.4090    0.3379 H   0  0  0  0  0  0  0  0  0  0  0  0
    6.7861    0.0203    0.9339 H   0  0  0  0  0  0  0  0  0  0  0  0
  1  2  2  0
  1 23  1  0
  1 24  1  0
 18  2  1  1
  2  3  1  0
  3  4  1  0
  3 25  1  0
  3 26  1  0
  4 17  1  0
  4  5  1  0
  4 27  1  1
  5  6  1  0
  5  7  1  0
  5 28  1  6
  6 29  1  0
  6 30  1  0
  6 31  1  0
  7  8  1  0
  7 32  1  0
  7 33  1  0
  8 18  1  0
  8  9  1  0
  8 34  1  1
  9 14  1  0
  9 10  1  0
  9 35  1  6
 10 11  1  0
 10 36  1  0
 10 37  1  0
 11 12  1  0
 11 38  1  0
 11 39  1  0
 12 13  1  0
 12 14  1  0
 12 40  1  6
 13 41  1  0
 13 42  1  0
 13 43  1  0
 14 21  1  0
 14 15  1  6
 15 16  1  0
 15 44  1  0
 15 45  1  0
 16 17  1  0
 17 18  1  0
 17 46  1  1
 18 19  1  0
 19 20  2  0
 19 21  1  0
 21 22  1  0
 21 47  1  6
 22 48  1  0
M  END
>  <i_m_ct_stereo_status>  (138) 
1

>  <s_m_source_file>  (138) 
/var/tmp/pbs.5076255.sched01/tmpbrsd6n1o/39u_ie0p0h.sdf

>  <i_m_source_file_index>  (138) 
14

>  <i_lp_mmshare_version>  (138) 
48012

>  <i_f3d_flags>  (138) 
0

>  <s_epik_input>  (138) 
W0NIMl09QzFbQ0gyXVtDQEBIXShbQ0BASF0oW0NIM10pW0NIMl0yKVtDSF0oT1tDSDJdMylbQ0BAXTEoQyg9TylbQ0BIXTRbT0hdKVtDQEhdMltDQEBIXShbQ0BdMzQ1KVtDSDJdW0NIMl1bQ0BIXTVbQ0gzXQ==

>  <s_epik_cmdline>  (138) 
J2VwaWtfcHl0aG9uJywgJy1waHQnLCAnMi4wJywgJy1waCcsICc3LjAnLCAnLXRuJywgJzgnLCAnLW1hJywgJzIwMCcsICctaW1hZScsICc8aW5maWxlLm1hZT4nLCAnLW9tYWUnLCAnPG91dGZpbGUubWFlPic=

>  <r_lp_tautomer_probability>  (138) 
1

>  <r_epik_Ionization_Penalty>  (138) 
1.09442e-07

>  <r_epik_Ionization_Penalty_Charging>  (138) 
0

>  <r_epik_Ionization_Penalty_Neutral>  (138) 
1.09442e-07

>  <r_epik_State_Penalty>  (138) 
-0

>  <r_epik_Charging_Adjusted_Penalty>  (138) 
0

>  <i_epik_Tot_Q>  (138) 
0

>  <i_epik_Tot_abs_Q>  (138) 
0

>  <s_lp_Force_Field>  (138) 
OPLS3e

>  <r_lp_Energy>  (138) 
54.0827

>  <b_lp_Chiralities_Consistent>  (138) 
1

>  <s_lp_Variant>  (138) 
41:0-1

>  <s_i_glide_gridfile>  (138) 
pfpi4k_grid

>  <i_i_glide_lignum>  (138) 
14

>  <i_i_glide_rotatable_bonds>  (138) 
1

>  <r_i_docking_score>  (138) 
-3.24022

>  <r_i_glide_ligand_efficiency>  (138) 
-0.147283

>  <r_i_glide_ligand_efficiency_sa>  (138) 
-0.412693

>  <r_i_glide_ligand_efficiency_ln>  (138) 
-0.792029

>  <r_i_glide_gscore>  (138) 
-3.24022

>  <r_i_glide_lipo>  (138) 
-0.214053

>  <r_i_glide_hbond>  (138) 
0

>  <r_i_glide_metal>  (138) 
-0

>  <r_i_glide_rewards>  (138) 
-1.47666

>  <r_i_glide_evdw>  (138) 
-19.62

>  <r_i_glide_ecoul>  (138) 
-3.79009

>  <r_i_glide_erotb>  (138) 
0

>  <r_i_glide_esite>  (138) 
0

>  <r_i_glide_emodel>  (138) 
-26.8997

>  <r_i_glide_energy>  (138) 
-23.4101

>  <r_i_glide_einternal>  (138) 
1.88011

>  <r_i_glide_intrahb_reward>  (138) 
-0

>  <i_i_glide_confnum>  (138) 
1

>  <i_i_glide_posenum>  (138) 
40

>  <r_i_glide_eff_state_penalty>  (138) 
0

>  <ligand_id>  (138) 
41

>  <original_smiles>  (138) 
C=C1CC2C(C)CC3C4CCC(C)C45COC2C13C(=O)C5O

>  <smiles>  (138) 
[H]OC1([H])C(=O)C23C(=C([H])[H])C([H])([H])C4([H])C2([H])OC([H])([H])C12C([H])(C([H])([H])[H])C([H])([H])C([H])([H])C2([H])C3([H])C([H])([H])C4([H])C([H])([H])[H]

$$$$
41:0:2
     RDKit          3D

 48 52  0  0  1  0  0  0  0  0999 V2000
    4.7665   -2.8139    5.3994 C   0  0  0  0  0  0  0  0  0  0  0  0
    3.8761   -3.0037    4.4031 C   0  0  0  0  0  0  0  0  0  0  0  0
    2.3859   -3.0390    4.6113 C   0  0  0  0  0  0  0  0  0  0  0  0
    1.8195   -2.9282    3.1857 C   0  0  1  0  0  0  0  0  0  0  0  0
    1.7801   -1.4706    2.6247 C   0  0  1  0  0  0  0  0  0  0  0  0
    0.8076   -0.5519    3.3817 C   0  0  0  0  0  0  0  0  0  0  0  0
    3.1869   -0.8126    2.5322 C   0  0  0  0  0  0  0  0  0  0  0  0
    4.3822   -1.7716    2.2565 C   0  0  2  0  0  0  0  0  0  0  0  0
    4.9215   -1.8705    0.7949 C   0  0  2  0  0  0  0  0  0  0  0  0
    4.3290   -1.0586   -0.3532 C   0  0  0  0  0  0  0  0  0  0  0  0
    4.9103   -1.7218   -1.6192 C   0  0  0  0  0  0  0  0  0  0  0  0
    5.6075   -3.0347   -1.1754 C   0  0  1  0  0  0  0  0  0  0  0  0
    7.1426   -2.9098   -1.2817 C   0  0  0  0  0  0  0  0  0  0  0  0
    5.0407   -3.3071    0.2485 C   0  0  2  0  0  0  0  0  0  0  0  0
    3.6469   -4.0061    0.0936 C   0  0  0  0  0  0  0  0  0  0  0  0
    2.6418   -3.5437    0.9774 O   0  0  0  0  0  0  0  0  0  0  0  0
    2.8566   -3.7280    2.3814 C   0  0  1  0  0  0  0  0  0  0  0  0
    4.1802   -3.1629    2.9151 C   0  0  2  0  0  0  0  0  0  0  0  0
    5.3137   -4.1714    2.6083 C   0  0  0  0  0  0  0  0  0  0  0  0
    5.6666   -5.0260    3.4287 O   0  0  0  0  0  0  0  0  0  0  0  0
    5.9542   -4.0964    1.2195 C   0  0  1  0  0  0  0  0  0  0  0  0
    6.2910   -5.3827    0.7254 O   0  0  0  0  0  0  0  0  0  0  0  0
    5.8233   -2.7779    5.2075 H   0  0  0  0  0  0  0  0  0  0  0  0
    4.4346   -2.7048    6.4169 H   0  0  0  0  0  0  0  0  0  0  0  0
    2.1294   -4.0109    5.0345 H   0  0  0  0  0  0  0  0  0  0  0  0
    2.0368   -2.2709    5.2984 H   0  0  0  0  0  0  0  0  0  0  0  0
    0.8260   -3.3869    3.1244 H   0  0  0  0  0  0  0  0  0  0  0  0
    1.3759   -1.5394    1.6030 H   0  0  0  0  0  0  0  0  0  0  0  0
    1.1617   -0.3266    4.3931 H   0  0  0  0  0  0  0  0  0  0  0  0
   -0.1901   -0.9883    3.4696 H   0  0  0  0  0  0  0  0  0  0  0  0
    0.7040    0.4009    2.8606 H   0  0  0  0  0  0  0  0  0  0  0  0
    3.1416   -0.0326    1.7803 H   0  0  0  0  0  0  0  0  0  0  0  0
    3.3751   -0.2842    3.4779 H   0  0  0  0  0  0  0  0  0  0  0  0
    5.1984   -1.3075    2.7925 H   0  0  0  0  0  0  0  0  0  0  0  0
    5.9471   -1.5019    0.8735 H   0  0  0  0  0  0  0  0  0  0  0  0
    3.2399   -1.1355   -0.3632 H   0  0  0  0  0  0  0  0  0  0  0  0
    4.5933   -0.0052   -0.2815 H   0  0  0  0  0  0  0  0  0  0  0  0
    4.1030   -1.9318   -2.3182 H   0  0  0  0  0  0  0  0  0  0  0  0
    5.6002   -1.0478   -2.1335 H   0  0  0  0  0  0  0  0  0  0  0  0
    5.3220   -3.8466   -1.8553 H   0  0  0  0  0  0  0  0  0  0  0  0
    7.5496   -2.1289   -0.6352 H   0  0  0  0  0  0  0  0  0  0  0  0
    7.4401   -2.6836   -2.3091 H   0  0  0  0  0  0  0  0  0  0  0  0
    7.6397   -3.8436   -1.0204 H   0  0  0  0  0  0  0  0  0  0  0  0
    3.2324   -3.8062   -0.8946 H   0  0  0  0  0  0  0  0  0  0  0  0
    3.7290   -5.0945    0.1476 H   0  0  0  0  0  0  0  0  0  0  0  0
    2.7705   -4.7900    2.6253 H   0  0  0  0  0  0  0  0  0  0  0  0
    6.8952   -3.5580    1.3458 H   0  0  0  0  0  0  0  0  0  0  0  0
    5.4937   -5.8866    0.6206 H   0  0  0  0  0  0  0  0  0  0  0  0
  1  2  2  0
  1 23  1  0
  1 24  1  0
 18  2  1  1
  2  3  1  0
  3  4  1  0
  3 25  1  0
  3 26  1  0
  4 17  1  0
  4  5  1  0
  4 27  1  1
  5  6  1  0
  5  7  1  0
  5 28  1  6
  6 29  1  0
  6 30  1  0
  6 31  1  0
  7  8  1  0
  7 32  1  0
  7 33  1  0
  8 18  1  0
  8  9  1  0
  8 34  1  1
  9 14  1  0
  9 10  1  0
  9 35  1  1
 10 11  1  0
 10 36  1  0
 10 37  1  0
 11 12  1  0
 11 38  1  0
 11 39  1  0
 12 13  1  0
 12 14  1  0
 12 40  1  6
 13 41  1  0
 13 42  1  0
 13 43  1  0
 14 21  1  0
 14 15  1  6
 15 16  1  0
 15 44  1  0
 15 45  1  0
 16 17  1  0
 17 18  1  0
 17 46  1  6
 18 19  1  0
 19 20  2  0
 19 21  1  0
 21 22  1  0
 21 47  1  1
 22 48  1  0
M  END
>  <i_m_ct_stereo_status>  (139) 
1

>  <s_m_source_file>  (139) 
/var/tmp/pbs.5076255.sched01/tmpbrsd6n1o/39u_ie0p0h.sdf

>  <i_m_source_file_index>  (139) 
14

>  <i_lp_mmshare_version>  (139) 
48012

>  <i_f3d_flags>  (139) 
0

>  <s_epik_input>  (139) 
W0NIMl09QzFbQ0gyXVtDQEBIXShbQ0BASF0oW0NIM10pW0NIMl0yKVtDSF0oT1tDSDJdMylbQ0BAXTEoQyg9TylbQ0BIXTRbT0hdKVtDQEhdMltDQEBIXShbQ0BdMzQ1KVtDSDJdW0NIMl1bQ0BIXTVbQ0gzXQ==

>  <s_epik_cmdline>  (139) 
J2VwaWtfcHl0aG9uJywgJy1waHQnLCAnMi4wJywgJy1waCcsICc3LjAnLCAnLXRuJywgJzgnLCAnLW1hJywgJzIwMCcsICctaW1hZScsICc8aW5maWxlLm1hZT4nLCAnLW9tYWUnLCAnPG91dGZpbGUubWFlPic=

>  <r_lp_tautomer_probability>  (139) 
1

>  <r_epik_Ionization_Penalty>  (139) 
1.09442e-07

>  <r_epik_Ionization_Penalty_Charging>  (139) 
0

>  <r_epik_Ionization_Penalty_Neutral>  (139) 
1.09442e-07

>  <r_epik_State_Penalty>  (139) 
-0

>  <r_epik_Charging_Adjusted_Penalty>  (139) 
0

>  <i_epik_Tot_Q>  (139) 
0

>  <i_epik_Tot_abs_Q>  (139) 
0

>  <s_lp_Force_Field>  (139) 
OPLS3e

>  <r_lp_Energy>  (139) 
54.0827

>  <b_lp_Chiralities_Consistent>  (139) 
1

>  <s_lp_Variant>  (139) 
41:0-1

>  <s_i_glide_gridfile>  (139) 
pfpi4k_grid

>  <i_i_glide_lignum>  (139) 
14

>  <i_i_glide_rotatable_bonds>  (139) 
1

>  <r_i_docking_score>  (139) 
-2.8402

>  <r_i_glide_ligand_efficiency>  (139) 
-0.1291

>  <r_i_glide_ligand_efficiency_sa>  (139) 
-0.361743

>  <r_i_glide_ligand_efficiency_ln>  (139) 
-0.694248

>  <r_i_glide_gscore>  (139) 
-2.8402

>  <r_i_glide_lipo>  (139) 
-0.244682

>  <r_i_glide_hbond>  (139) 
0

>  <r_i_glide_metal>  (139) 
-0

>  <r_i_glide_rewards>  (139) 
-1.38193

>  <r_i_glide_evdw>  (139) 
-22.4116

>  <r_i_glide_ecoul>  (139) 
-0.620037

>  <r_i_glide_erotb>  (139) 
0

>  <r_i_glide_esite>  (139) 
0

>  <r_i_glide_emodel>  (139) 
-26.32

>  <r_i_glide_energy>  (139) 
-23.0316

>  <r_i_glide_einternal>  (139) 
1.29606

>  <r_i_glide_intrahb_reward>  (139) 
-0

>  <i_i_glide_confnum>  (139) 
2

>  <i_i_glide_posenum>  (139) 
4

>  <r_i_glide_eff_state_penalty>  (139) 
0

>  <ligand_id>  (139) 
41

>  <original_smiles>  (139) 
C=C1CC2C(C)CC3C4CCC(C)C45COC2C13C(=O)C5O

>  <smiles>  (139) 
[H]OC1([H])C(=O)C23C(=C([H])[H])C([H])([H])C4([H])C2([H])OC([H])([H])C12C([H])(C([H])([H])[H])C([H])([H])C([H])([H])C2([H])C3([H])C([H])([H])C4([H])C([H])([H])[H]

$$$$
42:0:0
     RDKit          3D

 25 27  0  0  1  0  0  0  0  0999 V2000
    3.4676   -2.5877   -3.7372 C   0  0  0  0  0  0  0  0  0  0  0  0
    4.8180   -2.5157   -3.3009 O   0  0  0  0  0  0  0  0  0  0  0  0
    5.1365   -3.0394   -2.0655 C   0  0  0  0  0  0  0  0  0  0  0  0
    6.4838   -2.9450   -1.6651 C   0  0  0  0  0  0  0  0  0  0  0  0
    6.8933   -3.4466   -0.4180 C   0  0  0  0  0  0  0  0  0  0  0  0
    5.9597   -4.0617    0.4353 C   0  0  0  0  0  0  0  0  0  0  0  0
    4.5987   -4.1840    0.0642 C   0  0  0  0  0  0  0  0  0  0  0  0
    3.6221   -4.8302    0.9765 C   0  0  0  0  0  0  0  0  0  0  0  0
    3.7677   -4.8266    2.3890 C   0  0  0  0  0  0  0  0  0  0  0  0
    2.8970   -5.3995    3.2613 N   0  0  0  0  0  0  0  0  0  0  0  0
    1.8440   -6.0113    2.6525 C   0  0  0  0  0  0  0  0  0  0  0  0
    0.7818   -6.6402    3.1427 N   0  0  0  0  0  0  0  0  0  0  0  0
    0.0512   -7.0323    2.0309 N   0  0  0  0  0  0  0  0  0  0  0  0
    0.5872   -6.6541    0.9086 N   0  0  0  0  0  0  0  0  0  0  0  0
    1.7255   -6.0067    1.2586 N   0  0  0  0  0  0  0  0  0  0  0  0
    2.5609   -5.4372    0.3919 N   0  0  0  0  0  0  0  0  0  0  0  0
    4.2044   -3.6563   -1.1926 C   0  0  0  0  0  0  0  0  0  0  0  0
    3.3870   -2.1123   -4.7152 H   0  0  0  0  0  0  0  0  0  0  0  0
    2.7940   -2.0591   -3.0603 H   0  0  0  0  0  0  0  0  0  0  0  0
    3.1385   -3.6227   -3.8449 H   0  0  0  0  0  0  0  0  0  0  0  0
    7.2132   -2.4996   -2.3262 H   0  0  0  0  0  0  0  0  0  0  0  0
    7.9309   -3.3772   -0.1268 H   0  0  0  0  0  0  0  0  0  0  0  0
    6.3105   -4.4524    1.3777 H   0  0  0  0  0  0  0  0  0  0  0  0
    4.6105   -4.3286    2.8448 H   0  0  0  0  0  0  0  0  0  0  0  0
    3.1667   -3.7378   -1.4826 H   0  0  0  0  0  0  0  0  0  0  0  0
  1  2  1  0
  1 18  1  0
  1 19  1  0
  1 20  1  0
  2  3  1  0
  3 17  2  0
  3  4  1  0
  4  5  2  0
  4 21  1  0
  5  6  1  0
  5 22  1  0
  6  7  2  0
  6 23  1  0
  7  8  1  0
  7 17  1  0
  8 16  2  0
  8  9  1  0
  9 10  2  0
  9 24  1  0
 10 11  1  0
 11 15  1  0
 11 12  2  0
 12 13  1  0
 13 14  2  0
 14 15  1  0
 15 16  1  0
 17 25  1  0
M  END
>  <i_m_ct_stereo_status>  (140) 
1

>  <s_m_source_file>  (140) 
/var/tmp/pbs.5076255.sched01/tmpbrsd6n1o/39u_ie0p0h.sdf

>  <i_m_source_file_index>  (140) 
15

>  <i_lp_mmshare_version>  (140) 
48012

>  <i_f3d_flags>  (140) 
0

>  <s_epik_input>  (140) 
W0NIM11PYzFbY0hdW2NIXVtjSF1jKFtjSF0xKS1jKFtjSF1uMilubihjMjMpbm5uMw==

>  <s_epik_cmdline>  (140) 
J2VwaWtfcHl0aG9uJywgJy1waHQnLCAnMi4wJywgJy1waCcsICc3LjAnLCAnLXRuJywgJzgnLCAnLW1hJywgJzIwMCcsICctaW1hZScsICc8aW5maWxlLm1hZT4nLCAnLW9tYWUnLCAnPG91dGZpbGUubWFlPic=

>  <r_lp_tautomer_probability>  (140) 
1

>  <r_epik_Ionization_Penalty>  (140) 
1.86418e-13

>  <r_epik_Ionization_Penalty_Charging>  (140) 
0

>  <r_epik_Ionization_Penalty_Neutral>  (140) 
1.86418e-13

>  <r_epik_State_Penalty>  (140) 
-0

>  <r_epik_Charging_Adjusted_Penalty>  (140) 
0

>  <i_epik_Tot_Q>  (140) 
0

>  <i_epik_Tot_abs_Q>  (140) 
0

>  <s_lp_Force_Field>  (140) 
OPLS3e

>  <r_lp_Energy>  (140) 
33.2432

>  <b_lp_Chiralities_Consistent>  (140) 
1

>  <s_lp_Variant>  (140) 
42:0-1

>  <s_i_glide_gridfile>  (140) 
pfpi4k_grid

>  <i_i_glide_lignum>  (140) 
15

>  <i_i_glide_rotatable_bonds>  (140) 
2

>  <r_i_docking_score>  (140) 
-3.88206

>  <r_i_glide_ligand_efficiency>  (140) 
-0.228357

>  <r_i_glide_ligand_efficiency_sa>  (140) 
-0.587169

>  <r_i_glide_ligand_efficiency_ln>  (140) 
-1.01274

>  <r_i_glide_gscore>  (140) 
-3.88206

>  <r_i_glide_lipo>  (140) 
-0.545809

>  <r_i_glide_hbond>  (140) 
0

>  <r_i_glide_metal>  (140) 
-0

>  <r_i_glide_rewards>  (140) 
-1.85311

>  <r_i_glide_evdw>  (140) 
-23.5288

>  <r_i_glide_ecoul>  (140) 
-2.12333

>  <r_i_glide_erotb>  (140) 
0.327099

>  <r_i_glide_esite>  (140) 
-0.315301

>  <r_i_glide_emodel>  (140) 
-32.1877

>  <r_i_glide_energy>  (140) 
-25.6521

>  <r_i_glide_einternal>  (140) 
0.0502387

>  <r_i_glide_intrahb_reward>  (140) 
-0

>  <i_i_glide_confnum>  (140) 
4

>  <i_i_glide_posenum>  (140) 
31

>  <r_i_glide_eff_state_penalty>  (140) 
0

>  <ligand_id>  (140) 
42

>  <original_smiles>  (140) 
COc1cccc(-c2cnc3nnnn3n2)c1

>  <smiles>  (140) 
[H]c1nc2nnnn2nc1-c1c([H])c([H])c([H])c(OC([H])([H])[H])c1[H]

$$$$
42:0:1
     RDKit          3D

 25 27  0  0  1  0  0  0  0  0999 V2000
    3.4931   -0.3695   -4.7002 C   0  0  0  0  0  0  0  0  0  0  0  0
    3.2836   -1.6430   -4.0802 O   0  0  0  0  0  0  0  0  0  0  0  0
    3.7748   -1.8139   -2.7961 C   0  0  0  0  0  0  0  0  0  0  0  0
    4.5697   -0.8437   -2.1290 C   0  0  0  0  0  0  0  0  0  0  0  0
    5.0444   -1.0705   -0.8348 C   0  0  0  0  0  0  0  0  0  0  0  0
    4.7448   -2.2715   -0.1741 C   0  0  0  0  0  0  0  0  0  0  0  0
    3.9524   -3.2574   -0.7989 C   0  0  0  0  0  0  0  0  0  0  0  0
    3.6596   -4.5133   -0.0703 C   0  0  0  0  0  0  0  0  0  0  0  0
    4.6862   -5.3324    0.4647 C   0  0  0  0  0  0  0  0  0  0  0  0
    4.4741   -6.4914    1.1448 N   0  0  0  0  0  0  0  0  0  0  0  0
    3.1613   -6.7986    1.2778 C   0  0  0  0  0  0  0  0  0  0  0  0
    2.5470   -7.8307    1.8568 N   0  0  0  0  0  0  0  0  0  0  0  0
    1.2013   -7.6060    1.6725 N   0  0  0  0  0  0  0  0  0  0  0  0
    0.9560   -6.5132    1.0109 N   0  0  0  0  0  0  0  0  0  0  0  0
    2.1666   -5.9724    0.7502 N   0  0  0  0  0  0  0  0  0  0  0  0
    2.3544   -4.8380    0.0716 N   0  0  0  0  0  0  0  0  0  0  0  0
    3.4721   -3.0172   -2.1146 C   0  0  0  0  0  0  0  0  0  0  0  0
    3.0745   -0.3017   -5.7115 H   0  0  0  0  0  0  0  0  0  0  0  0
    4.5603   -0.1621   -4.7937 H   0  0  0  0  0  0  0  0  0  0  0  0
    3.0378    0.4311   -4.1110 H   0  0  0  0  0  0  0  0  0  0  0  0
    4.8275    0.1112   -2.5564 H   0  0  0  0  0  0  0  0  0  0  0  0
    5.6283   -0.3062   -0.3603 H   0  0  0  0  0  0  0  0  0  0  0  0
    5.1180   -2.4214    0.8246 H   0  0  0  0  0  0  0  0  0  0  0  0
    5.7199   -5.0488    0.3357 H   0  0  0  0  0  0  0  0  0  0  0  0
    2.8634   -3.7697   -2.6074 H   0  0  0  0  0  0  0  0  0  0  0  0
  1  2  1  0
  1 18  1  0
  1 19  1  0
  1 20  1  0
  2  3  1  0
  3 17  2  0
  3  4  1  0
  4  5  2  0
  4 21  1  0
  5  6  1  0
  5 22  1  0
  6  7  2  0
  6 23  1  0
  7  8  1  0
  7 17  1  0
  8 16  2  0
  8  9  1  0
  9 10  2  0
  9 24  1  0
 10 11  1  0
 11 15  1  0
 11 12  2  0
 12 13  1  0
 13 14  2  0
 14 15  1  0
 15 16  1  0
 17 25  1  0
M  END
>  <i_m_ct_stereo_status>  (141) 
1

>  <s_m_source_file>  (141) 
/var/tmp/pbs.5076255.sched01/tmpbrsd6n1o/39u_ie0p0h.sdf

>  <i_m_source_file_index>  (141) 
15

>  <i_lp_mmshare_version>  (141) 
48012

>  <i_f3d_flags>  (141) 
0

>  <s_epik_input>  (141) 
W0NIM11PYzFbY0hdW2NIXVtjSF1jKFtjSF0xKS1jKFtjSF1uMilubihjMjMpbm5uMw==

>  <s_epik_cmdline>  (141) 
J2VwaWtfcHl0aG9uJywgJy1waHQnLCAnMi4wJywgJy1waCcsICc3LjAnLCAnLXRuJywgJzgnLCAnLW1hJywgJzIwMCcsICctaW1hZScsICc8aW5maWxlLm1hZT4nLCAnLW9tYWUnLCAnPG91dGZpbGUubWFlPic=

>  <r_lp_tautomer_probability>  (141) 
1

>  <r_epik_Ionization_Penalty>  (141) 
1.86418e-13

>  <r_epik_Ionization_Penalty_Charging>  (141) 
0

>  <r_epik_Ionization_Penalty_Neutral>  (141) 
1.86418e-13

>  <r_epik_State_Penalty>  (141) 
-0

>  <r_epik_Charging_Adjusted_Penalty>  (141) 
0

>  <i_epik_Tot_Q>  (141) 
0

>  <i_epik_Tot_abs_Q>  (141) 
0

>  <s_lp_Force_Field>  (141) 
OPLS3e

>  <r_lp_Energy>  (141) 
33.2432

>  <b_lp_Chiralities_Consistent>  (141) 
1

>  <s_lp_Variant>  (141) 
42:0-1

>  <s_i_glide_gridfile>  (141) 
pfpi4k_grid

>  <i_i_glide_lignum>  (141) 
15

>  <i_i_glide_rotatable_bonds>  (141) 
2

>  <r_i_docking_score>  (141) 
-3.86654

>  <r_i_glide_ligand_efficiency>  (141) 
-0.227443

>  <r_i_glide_ligand_efficiency_sa>  (141) 
-0.584821

>  <r_i_glide_ligand_efficiency_ln>  (141) 
-1.00869

>  <r_i_glide_gscore>  (141) 
-3.86654

>  <r_i_glide_lipo>  (141) 
-0.417706

>  <r_i_glide_hbond>  (141) 
-0.0406567

>  <r_i_glide_metal>  (141) 
-0

>  <r_i_glide_rewards>  (141) 
-1.92722

>  <r_i_glide_evdw>  (141) 
-25.7672

>  <r_i_glide_ecoul>  (141) 
-2.23963

>  <r_i_glide_erotb>  (141) 
0.327099

>  <r_i_glide_esite>  (141) 
-0.183751

>  <r_i_glide_emodel>  (141) 
-32.3049

>  <r_i_glide_energy>  (141) 
-28.0069

>  <r_i_glide_einternal>  (141) 
4.24928

>  <r_i_glide_intrahb_reward>  (141) 
-0

>  <i_i_glide_confnum>  (141) 
3

>  <i_i_glide_posenum>  (141) 
26

>  <r_i_glide_eff_state_penalty>  (141) 
0

>  <ligand_id>  (141) 
42

>  <original_smiles>  (141) 
COc1cccc(-c2cnc3nnnn3n2)c1

>  <smiles>  (141) 
[H]c1nc2nnnn2nc1-c1c([H])c([H])c([H])c(OC([H])([H])[H])c1[H]

$$$$
42:0:2
     RDKit          3D

 25 27  0  0  1  0  0  0  0  0999 V2000
    3.8508   -0.4740   -3.2782 C   0  0  0  0  0  0  0  0  0  0  0  0
    3.1721   -1.5111   -2.5697 O   0  0  0  0  0  0  0  0  0  0  0  0
    3.9431   -2.3844   -1.8273 C   0  0  0  0  0  0  0  0  0  0  0  0
    5.3575   -2.3126   -1.7858 C   0  0  0  0  0  0  0  0  0  0  0  0
    6.0906   -3.2304   -1.0325 C   0  0  0  0  0  0  0  0  0  0  0  0
    5.4360   -4.2266   -0.3018 C   0  0  0  0  0  0  0  0  0  0  0  0
    4.0224   -4.3388   -0.3010 C   0  0  0  0  0  0  0  0  0  0  0  0
    3.3634   -5.4278    0.4865 C   0  0  0  0  0  0  0  0  0  0  0  0
    4.0813   -6.3958    1.2459 C   0  0  0  0  0  0  0  0  0  0  0  0
    3.5190   -7.3940    1.9753 N   0  0  0  0  0  0  0  0  0  0  0  0
    2.1649   -7.4027    1.9222 C   0  0  0  0  0  0  0  0  0  0  0  0
    1.2665   -8.1968    2.4980 N   0  0  0  0  0  0  0  0  0  0  0  0
    0.0401   -7.7113    2.0827 N   0  0  0  0  0  0  0  0  0  0  0  0
    0.1471   -6.6801    1.2932 N   0  0  0  0  0  0  0  0  0  0  0  0
    1.4732   -6.4528    1.1730 N   0  0  0  0  0  0  0  0  0  0  0  0
    2.0079   -5.4630    0.4544 N   0  0  0  0  0  0  0  0  0  0  0  0
    3.2915   -3.3956   -1.0817 C   0  0  0  0  0  0  0  0  0  0  0  0
    3.1628    0.1783   -3.8253 H   0  0  0  0  0  0  0  0  0  0  0  0
    4.5396   -0.9023   -4.0096 H   0  0  0  0  0  0  0  0  0  0  0  0
    4.4198    0.1548   -2.5894 H   0  0  0  0  0  0  0  0  0  0  0  0
    5.9290   -1.5742   -2.3202 H   0  0  0  0  0  0  0  0  0  0  0  0
    7.1621   -3.1673   -1.0274 H   0  0  0  0  0  0  0  0  0  0  0  0
    6.0661   -4.8944    0.2495 H   0  0  0  0  0  0  0  0  0  0  0  0
    5.1587   -6.3932    1.2966 H   0  0  0  0  0  0  0  0  0  0  0  0
    2.2081   -3.4269   -1.1317 H   0  0  0  0  0  0  0  0  0  0  0  0
  1  2  1  0
  1 18  1  0
  1 19  1  0
  1 20  1  0
  2  3  1  0
  3 17  2  0
  3  4  1  0
  4  5  2  0
  4 21  1  0
  5  6  1  0
  5 22  1  0
  6  7  2  0
  6 23  1  0
  7  8  1  0
  7 17  1  0
  8 16  2  0
  8  9  1  0
  9 10  2  0
  9 24  1  0
 10 11  1  0
 11 15  1  0
 11 12  2  0
 12 13  1  0
 13 14  2  0
 14 15  1  0
 15 16  1  0
 17 25  1  0
M  END
>  <i_m_ct_stereo_status>  (142) 
1

>  <s_m_source_file>  (142) 
/var/tmp/pbs.5076255.sched01/tmpbrsd6n1o/39u_ie0p0h.sdf

>  <i_m_source_file_index>  (142) 
15

>  <i_lp_mmshare_version>  (142) 
48012

>  <i_f3d_flags>  (142) 
0

>  <s_epik_input>  (142) 
W0NIM11PYzFbY0hdW2NIXVtjSF1jKFtjSF0xKS1jKFtjSF1uMilubihjMjMpbm5uMw==

>  <s_epik_cmdline>  (142) 
J2VwaWtfcHl0aG9uJywgJy1waHQnLCAnMi4wJywgJy1waCcsICc3LjAnLCAnLXRuJywgJzgnLCAnLW1hJywgJzIwMCcsICctaW1hZScsICc8aW5maWxlLm1hZT4nLCAnLW9tYWUnLCAnPG91dGZpbGUubWFlPic=

>  <r_lp_tautomer_probability>  (142) 
1

>  <r_epik_Ionization_Penalty>  (142) 
1.86418e-13

>  <r_epik_Ionization_Penalty_Charging>  (142) 
0

>  <r_epik_Ionization_Penalty_Neutral>  (142) 
1.86418e-13

>  <r_epik_State_Penalty>  (142) 
-0

>  <r_epik_Charging_Adjusted_Penalty>  (142) 
0

>  <i_epik_Tot_Q>  (142) 
0

>  <i_epik_Tot_abs_Q>  (142) 
0

>  <s_lp_Force_Field>  (142) 
OPLS3e

>  <r_lp_Energy>  (142) 
33.2432

>  <b_lp_Chiralities_Consistent>  (142) 
1

>  <s_lp_Variant>  (142) 
42:0-1

>  <s_i_glide_gridfile>  (142) 
pfpi4k_grid

>  <i_i_glide_lignum>  (142) 
15

>  <i_i_glide_rotatable_bonds>  (142) 
2

>  <r_i_docking_score>  (142) 
-3.57625

>  <r_i_glide_ligand_efficiency>  (142) 
-0.210368

>  <r_i_glide_ligand_efficiency_sa>  (142) 
-0.540914

>  <r_i_glide_ligand_efficiency_ln>  (142) 
-0.932964

>  <r_i_glide_gscore>  (142) 
-3.57625

>  <r_i_glide_lipo>  (142) 
-0.503637

>  <r_i_glide_hbond>  (142) 
-0.0488061

>  <r_i_glide_metal>  (142) 
-0

>  <r_i_glide_rewards>  (142) 
-1.85311

>  <r_i_glide_evdw>  (142) 
-25.2299

>  <r_i_glide_ecoul>  (142) 
0.188322

>  <r_i_glide_erotb>  (142) 
0.327099

>  <r_i_glide_esite>  (142) 
-0.264542

>  <r_i_glide_emodel>  (142) 
-29.1608

>  <r_i_glide_energy>  (142) 
-25.0416

>  <r_i_glide_einternal>  (142) 
3.46381

>  <r_i_glide_intrahb_reward>  (142) 
-0

>  <i_i_glide_confnum>  (142) 
4

>  <i_i_glide_posenum>  (142) 
36

>  <r_i_glide_eff_state_penalty>  (142) 
0

>  <ligand_id>  (142) 
42

>  <original_smiles>  (142) 
COc1cccc(-c2cnc3nnnn3n2)c1

>  <smiles>  (142) 
[H]c1nc2nnnn2nc1-c1c([H])c([H])c([H])c(OC([H])([H])[H])c1[H]

$$$$
43:0:0
     RDKit          3D

 51 54  0  0  1  0  0  0  0  0999 V2000
    2.7700   -4.0493    4.8889 C   0  0  0  0  0  0  0  0  0  0  0  0
    1.7353   -3.5846    3.8514 C   0  0  2  0  0  0  0  0  0  0  0  0
    2.2804   -3.6076    2.4166 C   0  0  0  0  0  0  0  0  0  0  0  0
    3.1149   -2.3692    2.0652 C   0  0  1  0  0  0  0  0  0  0  0  0
    3.6829   -2.3526    0.6145 C   0  0  2  0  0  0  0  0  0  0  0  0
    4.2627   -3.6822    0.0691 C   0  0  0  0  0  0  0  0  0  0  0  0
    4.6917   -3.5637   -1.4073 C   0  0  1  0  0  0  0  0  0  0  0  0
    3.5574   -3.4533   -2.2441 O   0  0  0  0  0  0  0  0  0  0  0  0
    5.6192   -2.3659   -1.6563 C   0  0  0  0  0  0  0  0  0  0  0  0
    5.0542   -1.0554   -1.0633 C   0  0  0  0  0  0  0  0  0  0  0  0
    4.6992   -1.1862    0.4404 C   0  0  2  0  0  0  0  0  0  0  0  0
    6.0041   -1.3550    1.2552 C   0  0  0  0  0  0  0  0  0  0  0  0
    4.0491    0.0904    0.9405 C   0  0  0  0  0  0  0  0  0  0  0  0
    2.9806    0.1467    1.7592 C   0  0  0  0  0  0  0  0  0  0  0  0
    2.2678   -1.0839    2.3128 C   0  0  2  0  0  0  0  0  0  0  0  0
    1.7777   -0.9504    3.7929 C   0  0  1  0  0  0  0  0  0  0  0  0
    2.9490   -0.6492    4.7527 C   0  0  0  0  0  0  0  0  0  0  0  0
    0.8076    0.2333    3.9429 C   0  0  0  0  0  0  0  0  0  0  0  0
   -0.4099    0.1833    4.5155 C   0  0  0  0  0  0  0  0  0  0  0  0
   -0.9465   -1.0760    5.0388 C   0  0  0  0  0  0  0  0  0  0  0  0
   -2.0041   -1.1222    5.6670 O   0  0  0  0  0  0  0  0  0  0  0  0
   -0.1635   -2.2864    4.7772 C   0  0  0  0  0  0  0  0  0  0  0  0
    1.0634   -2.2606    4.2088 C   0  0  0  0  0  0  0  0  0  0  0  0
    2.3474   -4.0044    5.8951 H   0  0  0  0  0  0  0  0  0  0  0  0
    3.6806   -3.4508    4.8709 H   0  0  0  0  0  0  0  0  0  0  0  0
    3.0610   -5.0830    4.6957 H   0  0  0  0  0  0  0  0  0  0  0  0
    0.9529   -4.3466    3.8739 H   0  0  0  0  0  0  0  0  0  0  0  0
    2.8512   -4.5207    2.2667 H   0  0  0  0  0  0  0  0  0  0  0  0
    1.4434   -3.6496    1.7316 H   0  0  0  0  0  0  0  0  0  0  0  0
    3.9647   -2.3831    2.7408 H   0  0  0  0  0  0  0  0  0  0  0  0
    2.8339   -2.1279   -0.0351 H   0  0  0  0  0  0  0  0  0  0  0  0
    5.1184   -3.9911    0.6727 H   0  0  0  0  0  0  0  0  0  0  0  0
    3.5287   -4.4821    0.1434 H   0  0  0  0  0  0  0  0  0  0  0  0
    5.2048   -4.4780   -1.7070 H   0  0  0  0  0  0  0  0  0  0  0  0
    3.1682   -4.3230   -2.3203 H   0  0  0  0  0  0  0  0  0  0  0  0
    6.5997   -2.5818   -1.2279 H   0  0  0  0  0  0  0  0  0  0  0  0
    5.7898   -2.2545   -2.7265 H   0  0  0  0  0  0  0  0  0  0  0  0
    5.7834   -0.2592   -1.2129 H   0  0  0  0  0  0  0  0  0  0  0  0
    4.1682   -0.7646   -1.6296 H   0  0  0  0  0  0  0  0  0  0  0  0
    6.5309   -2.2852    1.0477 H   0  0  0  0  0  0  0  0  0  0  0  0
    5.8280   -1.3065    2.3301 H   0  0  0  0  0  0  0  0  0  0  0  0
    6.6936   -0.5451    1.0230 H   0  0  0  0  0  0  0  0  0  0  0  0
    4.4848    0.9966    0.5672 H   0  0  0  0  0  0  0  0  0  0  0  0
    2.5767    1.1151    2.0141 H   0  0  0  0  0  0  0  0  0  0  0  0
    1.3701   -1.1549    1.6934 H   0  0  0  0  0  0  0  0  0  0  0  0
    2.6231   -0.6907    5.7941 H   0  0  0  0  0  0  0  0  0  0  0  0
    3.3531    0.3483    4.5810 H   0  0  0  0  0  0  0  0  0  0  0  0
    3.7837   -1.3360    4.6482 H   0  0  0  0  0  0  0  0  0  0  0  0
    1.1666    1.1931    3.6002 H   0  0  0  0  0  0  0  0  0  0  0  0
   -1.0191    1.0702    4.6219 H   0  0  0  0  0  0  0  0  0  0  0  0
   -0.6208   -3.2299    5.0283 H   0  0  0  0  0  0  0  0  0  0  0  0
  1  2  1  0
  1 24  1  0
  1 25  1  0
  1 26  1  0
  2 23  1  0
  2  3  1  0
  2 27  1  6
  3  4  1  0
  3 28  1  0
  3 29  1  0
  4 15  1  0
  4  5  1  0
  4 30  1  1
  5 11  1  0
  5  6  1  0
  5 31  1  6
  6  7  1  0
  6 32  1  0
  6 33  1  0
  7  8  1  0
  7  9  1  0
  7 34  1  6
  8 35  1  0
  9 10  1  0
  9 36  1  0
  9 37  1  0
 10 11  1  0
 10 38  1  0
 10 39  1  0
 11 12  1  1
 11 13  1  0
 12 40  1  0
 12 41  1  0
 12 42  1  0
 13 14  2  0
 13 43  1  0
 14 15  1  0
 14 44  1  0
 15 16  1  0
 15 45  1  6
 16 23  1  0
 16 17  1  1
 16 18  1  0
 17 46  1  0
 17 47  1  0
 17 48  1  0
 18 19  2  0
 18 49  1  0
 19 20  1  0
 19 50  1  0
 20 21  2  0
 20 22  1  0
 22 23  2  0
 22 51  1  0
M  END
>  <i_m_ct_stereo_status>  (143) 
1

>  <s_m_source_file>  (143) 
/var/tmp/pbs.5076255.sched01/tmpbrsd6n1o/39u_ie0p0h.sdf

>  <i_m_source_file_index>  (143) 
16

>  <i_lp_mmshare_version>  (143) 
48012

>  <i_f3d_flags>  (143) 
0

>  <s_epik_input>  (143) 
W0NIXTE9W0NIXUMoPU8pW0NIXT1DKFtDQEhdKFtDSDNdKVtDSDJdMilbQ0BAXTEoW0NIM10pW0NAQEhdKFtDSF09W0NIXTMpW0NAQEhdMltDQEBIXShbQ0BdMzRbQ0gzXSlbQ0gyXVtDQEBIXShbT0hdKVtDSDJdW0NIMl00

>  <s_epik_cmdline>  (143) 
J2VwaWtfcHl0aG9uJywgJy1waHQnLCAnMi4wJywgJy1waCcsICc3LjAnLCAnLXRuJywgJzgnLCAnLW1hJywgJzIwMCcsICctaW1hZScsICc8aW5maWxlLm1hZT4nLCAnLW9tYWUnLCAnPG91dGZpbGUubWFlPic=

>  <r_lp_tautomer_probability>  (143) 
1

>  <r_epik_Ionization_Penalty>  (143) 
1.98261e-06

>  <r_epik_Ionization_Penalty_Charging>  (143) 
0

>  <r_epik_Ionization_Penalty_Neutral>  (143) 
1.98261e-06

>  <r_epik_State_Penalty>  (143) 
-0

>  <r_epik_Charging_Adjusted_Penalty>  (143) 
0

>  <i_epik_Tot_Q>  (143) 
0

>  <i_epik_Tot_abs_Q>  (143) 
0

>  <s_lp_Force_Field>  (143) 
OPLS3e

>  <r_lp_Energy>  (143) 
34.4848

>  <b_lp_Chiralities_Consistent>  (143) 
1

>  <s_lp_Variant>  (143) 
43:0-1

>  <s_i_glide_gridfile>  (143) 
pfpi4k_grid

>  <i_i_glide_lignum>  (143) 
16

>  <i_i_glide_rotatable_bonds>  (143) 
1

>  <r_i_docking_score>  (143) 
-4.2012

>  <r_i_glide_ligand_efficiency>  (143) 
-0.182661

>  <r_i_glide_ligand_efficiency_sa>  (143) 
-0.519464

>  <r_i_glide_ligand_efficiency_ln>  (143) 
-1.01589

>  <r_i_glide_gscore>  (143) 
-4.2012

>  <r_i_glide_lipo>  (143) 
-0.338547

>  <r_i_glide_hbond>  (143) 
-0.350709

>  <r_i_glide_metal>  (143) 
-0

>  <r_i_glide_rewards>  (143) 
-1.27878

>  <r_i_glide_evdw>  (143) 
-23.598

>  <r_i_glide_ecoul>  (143) 
-6.79823

>  <r_i_glide_erotb>  (143) 
0

>  <r_i_glide_esite>  (143) 
-0.033537

>  <r_i_glide_emodel>  (143) 
-37.7017

>  <r_i_glide_energy>  (143) 
-30.3962

>  <r_i_glide_einternal>  (143) 
0.541922

>  <r_i_glide_intrahb_reward>  (143) 
-0

>  <i_i_glide_confnum>  (143) 
1

>  <i_i_glide_posenum>  (143) 
37

>  <r_i_glide_eff_state_penalty>  (143) 
0

>  <ligand_id>  (143) 
43

>  <original_smiles>  (143) 
CC1CC2C3CC(O)CCC3(C)C=CC2C2(C)C=CC(=O)C=C12

>  <smiles>  (143) 
[H]OC1([H])C([H])([H])C([H])([H])C2(C([H])([H])[H])C([H])=C([H])C3([H])C4(C([H])([H])[H])C([H])=C([H])C(=O)C([H])=C4C([H])(C([H])([H])[H])C([H])([H])C3([H])C2([H])C1([H])[H]

$$$$
43:0:1
     RDKit          3D

 51 54  0  0  1  0  0  0  0  0999 V2000
    1.5113   -3.0110    3.6402 C   0  0  0  0  0  0  0  0  0  0  0  0
    1.8643   -1.6578    2.9940 C   0  0  2  0  0  0  0  0  0  0  0  0
    2.2851   -1.7597    1.5214 C   0  0  0  0  0  0  0  0  0  0  0  0
    3.7361   -2.2095    1.3180 C   0  0  1  0  0  0  0  0  0  0  0  0
    4.1830   -2.3608   -0.1685 C   0  0  2  0  0  0  0  0  0  0  0  0
    3.1890   -3.0567   -1.1340 C   0  0  0  0  0  0  0  0  0  0  0  0
    3.6737   -3.0147   -2.5973 C   0  0  1  0  0  0  0  0  0  0  0  0
    3.6254   -1.6928   -3.0961 O   0  0  0  0  0  0  0  0  0  0  0  0
    5.1018   -3.5568   -2.7375 C   0  0  0  0  0  0  0  0  0  0  0  0
    6.0840   -2.9190   -1.7280 C   0  0  0  0  0  0  0  0  0  0  0  0
    5.5978   -3.0128   -0.2569 C   0  0  2  0  0  0  0  0  0  0  0  0
    5.6315   -4.4947    0.1966 C   0  0  0  0  0  0  0  0  0  0  0  0
    6.5388   -2.2534    0.6686 C   0  0  0  0  0  0  0  0  0  0  0  0
    6.1327   -1.4560    1.6803 C   0  0  0  0  0  0  0  0  0  0  0  0
    4.6708   -1.2092    2.0547 C   0  0  2  0  0  0  0  0  0  0  0  0
    4.3682   -1.1256    3.5933 C   0  0  1  0  0  0  0  0  0  0  0  0
    4.7630   -2.4250    4.3273 C   0  0  0  0  0  0  0  0  0  0  0  0
    5.1957   -0.0096    4.2454 C   0  0  0  0  0  0  0  0  0  0  0  0
    4.7120    0.9645    5.0376 C   0  0  0  0  0  0  0  0  0  0  0  0
    3.2781    1.0686    5.3148 C   0  0  0  0  0  0  0  0  0  0  0  0
    2.8354    1.8882    6.1164 O   0  0  0  0  0  0  0  0  0  0  0  0
    2.3892    0.1582    4.5893 C   0  0  0  0  0  0  0  0  0  0  0  0
    2.8602   -0.8365    3.8064 C   0  0  0  0  0  0  0  0  0  0  0  0
    1.2497   -2.8802    4.6922 H   0  0  0  0  0  0  0  0  0  0  0  0
    2.3206   -3.7355    3.5780 H   0  0  0  0  0  0  0  0  0  0  0  0
    0.6491   -3.4580    3.1449 H   0  0  0  0  0  0  0  0  0  0  0  0
    0.9271   -1.1000    2.9905 H   0  0  0  0  0  0  0  0  0  0  0  0
    1.6116   -2.4448    1.0230 H   0  0  0  0  0  0  0  0  0  0  0  0
    2.1546   -0.7876    1.0426 H   0  0  0  0  0  0  0  0  0  0  0  0
    3.8101   -3.1920    1.7739 H   0  0  0  0  0  0  0  0  0  0  0  0
    4.2731   -1.3403   -0.5468 H   0  0  0  0  0  0  0  0  0  0  0  0
    3.0174   -4.0913   -0.8308 H   0  0  0  0  0  0  0  0  0  0  0  0
    2.2165   -2.5833   -1.1004 H   0  0  0  0  0  0  0  0  0  0  0  0
    2.9982   -3.6146   -3.2099 H   0  0  0  0  0  0  0  0  0  0  0  0
    2.7682   -1.3381   -2.8963 H   0  0  0  0  0  0  0  0  0  0  0  0
    5.0723   -4.6367   -2.5916 H   0  0  0  0  0  0  0  0  0  0  0  0
    5.4593   -3.4121   -3.7570 H   0  0  0  0  0  0  0  0  0  0  0  0
    7.0601   -3.3971   -1.8370 H   0  0  0  0  0  0  0  0  0  0  0  0
    6.2272   -1.8722   -1.9984 H   0  0  0  0  0  0  0  0  0  0  0  0
    4.9363   -5.1287   -0.3526 H   0  0  0  0  0  0  0  0  0  0  0  0
    5.4040   -4.6024    1.2571 H   0  0  0  0  0  0  0  0  0  0  0  0
    6.6268   -4.9188    0.0586 H   0  0  0  0  0  0  0  0  0  0  0  0
    7.5950   -2.3753    0.4789 H   0  0  0  0  0  0  0  0  0  0  0  0
    6.8801   -0.9375    2.2598 H   0  0  0  0  0  0  0  0  0  0  0  0
    4.4658   -0.2143    1.6503 H   0  0  0  0  0  0  0  0  0  0  0  0
    4.4463   -2.4021    5.3720 H   0  0  0  0  0  0  0  0  0  0  0  0
    5.8371   -2.5557    4.3291 H   0  0  0  0  0  0  0  0  0  0  0  0
    4.3655   -3.3273    3.8761 H   0  0  0  0  0  0  0  0  0  0  0  0
    6.2643   -0.0406    4.0877 H   0  0  0  0  0  0  0  0  0  0  0  0
    5.3610    1.6974    5.4936 H   0  0  0  0  0  0  0  0  0  0  0  0
    1.3287    0.3336    4.6849 H   0  0  0  0  0  0  0  0  0  0  0  0
  1  2  1  0
  1 24  1  0
  1 25  1  0
  1 26  1  0
  2 23  1  0
  2  3  1  0
  2 27  1  6
  3  4  1  0
  3 28  1  0
  3 29  1  0
  4 15  1  0
  4  5  1  0
  4 30  1  1
  5 11  1  0
  5  6  1  0
  5 31  1  6
  6  7  1  0
  6 32  1  0
  6 33  1  0
  7  8  1  0
  7  9  1  0
  7 34  1  6
  8 35  1  0
  9 10  1  0
  9 36  1  0
  9 37  1  0
 10 11  1  0
 10 38  1  0
 10 39  1  0
 11 12  1  1
 11 13  1  0
 12 40  1  0
 12 41  1  0
 12 42  1  0
 13 14  2  0
 13 43  1  0
 14 15  1  0
 14 44  1  0
 15 16  1  0
 15 45  1  6
 16 23  1  0
 16 17  1  1
 16 18  1  0
 17 46  1  0
 17 47  1  0
 17 48  1  0
 18 19  2  0
 18 49  1  0
 19 20  1  0
 19 50  1  0
 20 21  2  0
 20 22  1  0
 22 23  2  0
 22 51  1  0
M  END
>  <i_m_ct_stereo_status>  (144) 
1

>  <s_m_source_file>  (144) 
/var/tmp/pbs.5076255.sched01/tmpbrsd6n1o/39u_ie0p0h.sdf

>  <i_m_source_file_index>  (144) 
16

>  <i_lp_mmshare_version>  (144) 
48012

>  <i_f3d_flags>  (144) 
0

>  <s_epik_input>  (144) 
W0NIXTE9W0NIXUMoPU8pW0NIXT1DKFtDQEhdKFtDSDNdKVtDSDJdMilbQ0BAXTEoW0NIM10pW0NAQEhdKFtDSF09W0NIXTMpW0NAQEhdMltDQEBIXShbQ0BdMzRbQ0gzXSlbQ0gyXVtDQEBIXShbT0hdKVtDSDJdW0NIMl00

>  <s_epik_cmdline>  (144) 
J2VwaWtfcHl0aG9uJywgJy1waHQnLCAnMi4wJywgJy1waCcsICc3LjAnLCAnLXRuJywgJzgnLCAnLW1hJywgJzIwMCcsICctaW1hZScsICc8aW5maWxlLm1hZT4nLCAnLW9tYWUnLCAnPG91dGZpbGUubWFlPic=

>  <r_lp_tautomer_probability>  (144) 
1

>  <r_epik_Ionization_Penalty>  (144) 
1.98261e-06

>  <r_epik_Ionization_Penalty_Charging>  (144) 
0

>  <r_epik_Ionization_Penalty_Neutral>  (144) 
1.98261e-06

>  <r_epik_State_Penalty>  (144) 
-0

>  <r_epik_Charging_Adjusted_Penalty>  (144) 
0

>  <i_epik_Tot_Q>  (144) 
0

>  <i_epik_Tot_abs_Q>  (144) 
0

>  <s_lp_Force_Field>  (144) 
OPLS3e

>  <r_lp_Energy>  (144) 
34.4848

>  <b_lp_Chiralities_Consistent>  (144) 
1

>  <s_lp_Variant>  (144) 
43:0-1

>  <s_i_glide_gridfile>  (144) 
pfpi4k_grid

>  <i_i_glide_lignum>  (144) 
16

>  <i_i_glide_rotatable_bonds>  (144) 
1

>  <r_i_docking_score>  (144) 
-3.75302

>  <r_i_glide_ligand_efficiency>  (144) 
-0.163175

>  <r_i_glide_ligand_efficiency_sa>  (144) 
-0.464047

>  <r_i_glide_ligand_efficiency_ln>  (144) 
-0.907514

>  <r_i_glide_gscore>  (144) 
-3.75302

>  <r_i_glide_lipo>  (144) 
-0.82969

>  <r_i_glide_hbond>  (144) 
0

>  <r_i_glide_metal>  (144) 
-0

>  <r_i_glide_rewards>  (144) 
-1.27878

>  <r_i_glide_evdw>  (144) 
-25.0589

>  <r_i_glide_ecoul>  (144) 
-2.60993

>  <r_i_glide_erotb>  (144) 
0

>  <r_i_glide_esite>  (144) 
-0.000115106

>  <r_i_glide_emodel>  (144) 
-34.2979

>  <r_i_glide_energy>  (144) 
-27.6688

>  <r_i_glide_einternal>  (144) 
0.427263

>  <r_i_glide_intrahb_reward>  (144) 
-0

>  <i_i_glide_confnum>  (144) 
2

>  <i_i_glide_posenum>  (144) 
24

>  <r_i_glide_eff_state_penalty>  (144) 
0

>  <ligand_id>  (144) 
43

>  <original_smiles>  (144) 
CC1CC2C3CC(O)CCC3(C)C=CC2C2(C)C=CC(=O)C=C12

>  <smiles>  (144) 
[H]OC1([H])C([H])([H])C([H])([H])C2(C([H])([H])[H])C([H])=C([H])C3([H])C4(C([H])([H])[H])C([H])=C([H])C(=O)C([H])=C4C([H])(C([H])([H])[H])C([H])([H])C3([H])C2([H])C1([H])[H]

$$$$
43:0:2
     RDKit          3D

 51 54  0  0  1  0  0  0  0  0999 V2000
    5.9157   -7.3930    2.2295 C   0  0  0  0  0  0  0  0  0  0  0  0
    4.5468   -7.3117    1.5279 C   0  0  2  0  0  0  0  0  0  0  0  0
    4.4973   -6.2746    0.3914 C   0  0  0  0  0  0  0  0  0  0  0  0
    4.2994   -4.8358    0.8932 C   0  0  1  0  0  0  0  0  0  0  0  0
    4.2671   -3.7489   -0.2212 C   0  0  2  0  0  0  0  0  0  0  0  0
    5.3130   -3.8797   -1.3532 C   0  0  0  0  0  0  0  0  0  0  0  0
    5.1068   -2.8425   -2.4716 C   0  0  1  0  0  0  0  0  0  0  0  0
    3.9462   -3.1412   -3.2232 O   0  0  0  0  0  0  0  0  0  0  0  0
    5.0109   -1.4128   -1.9138 C   0  0  0  0  0  0  0  0  0  0  0  0
    4.0197   -1.2966   -0.7363 C   0  0  0  0  0  0  0  0  0  0  0  0
    4.2833   -2.3178    0.3999 C   0  0  2  0  0  0  0  0  0  0  0  0
    5.6110   -1.9481    1.1073 C   0  0  0  0  0  0  0  0  0  0  0  0
    3.1915   -2.2385    1.4609 C   0  0  0  0  0  0  0  0  0  0  0  0
    2.6241   -3.3094    2.0493 C   0  0  0  0  0  0  0  0  0  0  0  0
    2.9945   -4.7619    1.7389 C   0  0  2  0  0  0  0  0  0  0  0  0
    3.0150   -5.7233    2.9746 C   0  0  1  0  0  0  0  0  0  0  0  0
    4.0096   -5.2385    4.0529 C   0  0  0  0  0  0  0  0  0  0  0  0
    1.6440   -5.7493    3.6659 C   0  0  0  0  0  0  0  0  0  0  0  0
    0.9443   -6.8546    3.9850 C   0  0  0  0  0  0  0  0  0  0  0  0
    1.4432   -8.1860    3.6404 C   0  0  0  0  0  0  0  0  0  0  0  0
    0.8661   -9.2013    4.0185 O   0  0  0  0  0  0  0  0  0  0  0  0
    2.6535   -8.2555    2.8183 C   0  0  0  0  0  0  0  0  0  0  0  0
    3.3768   -7.1585    2.5034 C   0  0  0  0  0  0  0  0  0  0  0  0
    5.8905   -8.1253    3.0399 H   0  0  0  0  0  0  0  0  0  0  0  0
    6.2402   -6.4415    2.6488 H   0  0  0  0  0  0  0  0  0  0  0  0
    6.6895   -7.7117    1.5291 H   0  0  0  0  0  0  0  0  0  0  0  0
    4.4280   -8.2847    1.0462 H   0  0  0  0  0  0  0  0  0  0  0  0
    5.4153   -6.3516   -0.1835 H   0  0  0  0  0  0  0  0  0  0  0  0
    3.6901   -6.5283   -0.2949 H   0  0  0  0  0  0  0  0  0  0  0  0
    5.1560   -4.6203    1.5246 H   0  0  0  0  0  0  0  0  0  0  0  0
    3.3036   -3.8719   -0.7192 H   0  0  0  0  0  0  0  0  0  0  0  0
    6.3220   -3.7930   -0.9499 H   0  0  0  0  0  0  0  0  0  0  0  0
    5.2514   -4.8657   -1.8079 H   0  0  0  0  0  0  0  0  0  0  0  0
    5.9485   -2.9053   -3.1624 H   0  0  0  0  0  0  0  0  0  0  0  0
    3.7459   -4.0636   -3.1180 H   0  0  0  0  0  0  0  0  0  0  0  0
    5.9953   -1.0993   -1.5761 H   0  0  0  0  0  0  0  0  0  0  0  0
    4.7337   -0.7178   -2.7082 H   0  0  0  0  0  0  0  0  0  0  0  0
    4.0530   -0.2787   -0.3431 H   0  0  0  0  0  0  0  0  0  0  0  0
    3.0134   -1.4334   -1.1278 H   0  0  0  0  0  0  0  0  0  0  0  0
    6.4830   -2.0456    0.4635 H   0  0  0  0  0  0  0  0  0  0  0  0
    5.7879   -2.5627    1.9888 H   0  0  0  0  0  0  0  0  0  0  0  0
    5.5883   -0.9142    1.4552 H   0  0  0  0  0  0  0  0  0  0  0  0
    2.8573   -1.2456    1.7252 H   0  0  0  0  0  0  0  0  0  0  0  0
    1.8359   -3.1406    2.7670 H   0  0  0  0  0  0  0  0  0  0  0  0
    2.1821   -5.1105    1.0989 H   0  0  0  0  0  0  0  0  0  0  0  0
    4.1137   -5.9750    4.8523 H   0  0  0  0  0  0  0  0  0  0  0  0
    3.6715   -4.3118    4.5149 H   0  0  0  0  0  0  0  0  0  0  0  0
    5.0047   -5.0377    3.6687 H   0  0  0  0  0  0  0  0  0  0  0  0
    1.2388   -4.7961    3.9714 H   0  0  0  0  0  0  0  0  0  0  0  0
    0.0060   -6.7953    4.5171 H   0  0  0  0  0  0  0  0  0  0  0  0
    2.9323   -9.2327    2.4485 H   0  0  0  0  0  0  0  0  0  0  0  0
  1  2  1  0
  1 24  1  0
  1 25  1  0
  1 26  1  0
  2 23  1  0
  2  3  1  0
  2 27  1  6
  3  4  1  0
  3 28  1  0
  3 29  1  0
  4 15  1  0
  4  5  1  0
  4 30  1  1
  5 11  1  0
  5  6  1  0
  5 31  1  6
  6  7  1  0
  6 32  1  0
  6 33  1  0
  7  8  1  0
  7  9  1  0
  7 34  1  6
  8 35  1  0
  9 10  1  0
  9 36  1  0
  9 37  1  0
 10 11  1  0
 10 38  1  0
 10 39  1  0
 11 12  1  1
 11 13  1  0
 12 40  1  0
 12 41  1  0
 12 42  1  0
 13 14  2  0
 13 43  1  0
 14 15  1  0
 14 44  1  0
 15 16  1  0
 15 45  1  6
 16 23  1  0
 16 17  1  1
 16 18  1  0
 17 46  1  0
 17 47  1  0
 17 48  1  0
 18 19  2  0
 18 49  1  0
 19 20  1  0
 19 50  1  0
 20 21  2  0
 20 22  1  0
 22 23  2  0
 22 51  1  0
M  END
>  <i_m_ct_stereo_status>  (145) 
1

>  <s_m_source_file>  (145) 
/var/tmp/pbs.5076255.sched01/tmpbrsd6n1o/39u_ie0p0h.sdf

>  <i_m_source_file_index>  (145) 
16

>  <i_lp_mmshare_version>  (145) 
48012

>  <i_f3d_flags>  (145) 
0

>  <s_epik_input>  (145) 
W0NIXTE9W0NIXUMoPU8pW0NIXT1DKFtDQEhdKFtDSDNdKVtDSDJdMilbQ0BAXTEoW0NIM10pW0NAQEhdKFtDSF09W0NIXTMpW0NAQEhdMltDQEBIXShbQ0BdMzRbQ0gzXSlbQ0gyXVtDQEBIXShbT0hdKVtDSDJdW0NIMl00

>  <s_epik_cmdline>  (145) 
J2VwaWtfcHl0aG9uJywgJy1waHQnLCAnMi4wJywgJy1waCcsICc3LjAnLCAnLXRuJywgJzgnLCAnLW1hJywgJzIwMCcsICctaW1hZScsICc8aW5maWxlLm1hZT4nLCAnLW9tYWUnLCAnPG91dGZpbGUubWFlPic=

>  <r_lp_tautomer_probability>  (145) 
1

>  <r_epik_Ionization_Penalty>  (145) 
1.98261e-06

>  <r_epik_Ionization_Penalty_Charging>  (145) 
0

>  <r_epik_Ionization_Penalty_Neutral>  (145) 
1.98261e-06

>  <r_epik_State_Penalty>  (145) 
-0

>  <r_epik_Charging_Adjusted_Penalty>  (145) 
0

>  <i_epik_Tot_Q>  (145) 
0

>  <i_epik_Tot_abs_Q>  (145) 
0

>  <s_lp_Force_Field>  (145) 
OPLS3e

>  <r_lp_Energy>  (145) 
34.4848

>  <b_lp_Chiralities_Consistent>  (145) 
1

>  <s_lp_Variant>  (145) 
43:0-1

>  <s_i_glide_gridfile>  (145) 
pfpi4k_grid

>  <i_i_glide_lignum>  (145) 
16

>  <i_i_glide_rotatable_bonds>  (145) 
1

>  <r_i_docking_score>  (145) 
-3.63332

>  <r_i_glide_ligand_efficiency>  (145) 
-0.157971

>  <r_i_glide_ligand_efficiency_sa>  (145) 
-0.449247

>  <r_i_glide_ligand_efficiency_ln>  (145) 
-0.87857

>  <r_i_glide_gscore>  (145) 
-3.63332

>  <r_i_glide_lipo>  (145) 
-0.580418

>  <r_i_glide_hbond>  (145) 
-0.161333

>  <r_i_glide_metal>  (145) 
-0

>  <r_i_glide_rewards>  (145) 
-1.27878

>  <r_i_glide_evdw>  (145) 
-26.3812

>  <r_i_glide_ecoul>  (145) 
-1.87969

>  <r_i_glide_erotb>  (145) 
0

>  <r_i_glide_esite>  (145) 
-0.0117786

>  <r_i_glide_emodel>  (145) 
-34.2441

>  <r_i_glide_energy>  (145) 
-28.2609

>  <r_i_glide_einternal>  (145) 
1.08081

>  <r_i_glide_intrahb_reward>  (145) 
-0

>  <i_i_glide_confnum>  (145) 
1

>  <i_i_glide_posenum>  (145) 
2

>  <r_i_glide_eff_state_penalty>  (145) 
0

>  <ligand_id>  (145) 
43

>  <original_smiles>  (145) 
CC1CC2C3CC(O)CCC3(C)C=CC2C2(C)C=CC(=O)C=C12

>  <smiles>  (145) 
[H]OC1([H])C([H])([H])C([H])([H])C2(C([H])([H])[H])C([H])=C([H])C3([H])C4(C([H])([H])[H])C([H])=C([H])C(=O)C([H])=C4C([H])(C([H])([H])[H])C([H])([H])C3([H])C2([H])C1([H])[H]

$$$$
45:0:0
     RDKit          3D

 36 40  0  0  1  0  0  0  0  0999 V2000
    5.8130   -5.7057    0.7173 C   0  0  0  0  0  0  0  0  0  0  0  0
    4.3623   -5.5395    0.6914 N   0  0  0  0  0  0  0  0  0  0  0  0
    3.5615   -6.5422    1.1837 N   0  0  0  0  0  0  0  0  0  0  0  0
    2.3320   -6.1339    1.0963 N   0  0  0  0  0  0  0  0  0  0  0  0
    2.2513   -4.8820    0.5540 N   0  0  0  0  0  0  0  0  0  0  0  0
    3.5331   -4.5585    0.3173 C   0  0  0  0  0  0  0  0  0  0  0  0
    3.9293   -3.2385   -0.2682 C   0  0  2  0  0  0  0  0  0  0  0  0
    3.9609   -3.2108   -1.8236 C   0  0  2  0  0  0  0  0  0  0  0  0
    2.5315   -3.2919   -2.3839 C   0  0  0  0  0  0  0  0  0  0  0  0
    4.9168   -4.1747   -2.5371 C   0  0  0  0  0  0  0  0  0  0  0  0
    5.9655   -3.0869   -2.5498 C   0  0  2  0  0  0  0  0  0  0  0  0
    6.8895   -3.1481   -1.4631 O   0  0  0  0  0  0  0  0  0  0  0  0
    6.5691   -2.5656   -0.1876 C   0  0  1  0  0  0  0  0  0  0  0  0
    5.7227   -1.3211   -0.2364 C   0  0  1  0  0  0  0  0  0  0  0  0
    5.1138   -0.8493   -1.5415 C   0  0  0  0  0  0  0  0  0  0  0  0
    4.8321   -2.0699   -2.4088 C   0  0  2  0  0  0  0  0  0  0  0  0
    5.1652   -2.5862    0.4079 C   0  0  1  0  0  0  0  0  0  0  0  0
    5.0434   -2.5588    1.9361 C   0  0  0  0  0  0  0  0  0  0  0  0
    6.2858   -5.3517   -0.2037 H   0  0  0  0  0  0  0  0  0  0  0  0
    6.0522   -6.7575    0.8664 H   0  0  0  0  0  0  0  0  0  0  0  0
    6.2615   -5.1491    1.5493 H   0  0  0  0  0  0  0  0  0  0  0  0
    3.1125   -2.5763    0.0282 H   0  0  0  0  0  0  0  0  0  0  0  0
    2.5537   -3.2778   -3.4742 H   0  0  0  0  0  0  0  0  0  0  0  0
    1.9075   -2.4620   -2.0647 H   0  0  0  0  0  0  0  0  0  0  0  0
    2.0312   -4.2154   -2.0966 H   0  0  0  0  0  0  0  0  0  0  0  0
    5.1447   -5.0726   -1.9668 H   0  0  0  0  0  0  0  0  0  0  0  0
    4.6062   -4.4030   -3.5603 H   0  0  0  0  0  0  0  0  0  0  0  0
    6.4655   -3.0436   -3.5142 H   0  0  0  0  0  0  0  0  0  0  0  0
    7.4149   -2.5865    0.5027 H   0  0  0  0  0  0  0  0  0  0  0  0
    6.0246   -0.5092    0.4265 H   0  0  0  0  0  0  0  0  0  0  0  0
    4.2140   -0.2778   -1.3121 H   0  0  0  0  0  0  0  0  0  0  0  0
    5.8006   -0.1666   -2.0513 H   0  0  0  0  0  0  0  0  0  0  0  0
    4.4688   -1.8010   -3.4010 H   0  0  0  0  0  0  0  0  0  0  0  0
    5.9041   -2.0307    2.3535 H   0  0  0  0  0  0  0  0  0  0  0  0
    5.0414   -3.5511    2.3805 H   0  0  0  0  0  0  0  0  0  0  0  0
    4.1302   -2.0539    2.2556 H   0  0  0  0  0  0  0  0  0  0  0  0
  1  2  1  0
  1 19  1  0
  1 20  1  0
  1 21  1  0
  2  6  1  0
  2  3  1  0
  3  4  2  0
  4  5  1  0
  5  6  2  0
  6  7  1  0
  7 17  1  0
  7  8  1  0
  7 22  1  1
  8 16  1  0
  8  9  1  6
  8 10  1  0
  9 23  1  0
  9 24  1  0
  9 25  1  0
 10 11  1  0
 10 26  1  0
 10 27  1  0
 11 16  1  0
 11 12  1  0
 11 28  1  6
 12 13  1  0
 13 17  1  0
 13 14  1  0
 13 29  1  1
 14 15  1  0
 14 17  1  0
 14 30  1  1
 15 16  1  0
 15 31  1  0
 15 32  1  0
 16 33  1  6
 17 18  1  1
 18 34  1  0
 18 35  1  0
 18 36  1  0
M  END
>  <i_m_ct_stereo_status>  (146) 
1

>  <s_m_source_file>  (146) 
/var/tmp/pbs.5076255.sched01/tmpbrsd6n1o/39u_ie0p0h.sdf

>  <i_m_source_file_index>  (146) 
18

>  <i_lp_mmshare_version>  (146) 
48012

>  <i_f3d_flags>  (146) 
0

>  <s_epik_input>  (146) 
W0NIM11uMW5ubmMxW0NASF0yW0NAXTMoW0NIM10pW0NASF0oW0NIMl00KVtDQEBIXTNPW0NAQEhdKFtDSDJdNSlbQ0BIXTRbQ0BdMjVbQ0gzXQ==

>  <s_epik_cmdline>  (146) 
J2VwaWtfcHl0aG9uJywgJy1waHQnLCAnMi4wJywgJy1waCcsICc3LjAnLCAnLXRuJywgJzgnLCAnLW1hJywgJzIwMCcsICctaW1hZScsICc8aW5maWxlLm1hZT4nLCAnLW9tYWUnLCAnPG91dGZpbGUubWFlPic=

>  <r_lp_tautomer_probability>  (146) 
1

>  <r_epik_Ionization_Penalty>  (146) 
1.81464e-08

>  <r_epik_Ionization_Penalty_Charging>  (146) 
0

>  <r_epik_Ionization_Penalty_Neutral>  (146) 
1.81464e-08

>  <r_epik_State_Penalty>  (146) 
-0

>  <r_epik_Charging_Adjusted_Penalty>  (146) 
0

>  <i_epik_Tot_Q>  (146) 
0

>  <i_epik_Tot_abs_Q>  (146) 
0

>  <s_lp_Force_Field>  (146) 
OPLS3e

>  <r_lp_Energy>  (146) 
44.9098

>  <b_lp_Chiralities_Consistent>  (146) 
1

>  <s_lp_Variant>  (146) 
45:0-1

>  <s_i_glide_gridfile>  (146) 
pfpi4k_grid

>  <i_i_glide_lignum>  (146) 
18

>  <i_i_glide_rotatable_bonds>  (146) 
1

>  <r_i_docking_score>  (146) 
-3.39458

>  <r_i_glide_ligand_efficiency>  (146) 
-0.188588

>  <r_i_glide_ligand_efficiency_sa>  (146) 
-0.494239

>  <r_i_glide_ligand_efficiency_ln>  (146) 
-0.872559

>  <r_i_glide_gscore>  (146) 
-3.39458

>  <r_i_glide_lipo>  (146) 
-0.56522

>  <r_i_glide_hbond>  (146) 
0

>  <r_i_glide_metal>  (146) 
-0

>  <r_i_glide_rewards>  (146) 
-1.81715

>  <r_i_glide_evdw>  (146) 
-18.8449

>  <r_i_glide_ecoul>  (146) 
-1.81651

>  <r_i_glide_erotb>  (146) 
0.287226

>  <r_i_glide_esite>  (146) 
-0.0847146

>  <r_i_glide_emodel>  (146) 
-24.1494

>  <r_i_glide_energy>  (146) 
-20.6614

>  <r_i_glide_einternal>  (146) 
1.54121

>  <r_i_glide_intrahb_reward>  (146) 
-0

>  <i_i_glide_confnum>  (146) 
2

>  <i_i_glide_posenum>  (146) 
32

>  <r_i_glide_eff_state_penalty>  (146) 
0

>  <ligand_id>  (146) 
45

>  <original_smiles>  (146) 
Cn1nnnc1C1C2(C)CC3OC4C(CC32)C41C

>  <smiles>  (146) 
[H]C([H])([H])n1nnnc1C1([H])C2(C([H])([H])[H])C([H])([H])C3([H])OC4([H])C([H])(C([H])([H])C32[H])C41C([H])([H])[H]

$$$$
45:0:1
     RDKit          3D

 36 40  0  0  1  0  0  0  0  0999 V2000
    1.8773   -2.8903   -3.9181 C   0  0  0  0  0  0  0  0  0  0  0  0
    3.1633   -3.3242   -3.4417 N   0  0  0  0  0  0  0  0  0  0  0  0
    3.9446   -3.9579   -4.3256 N   0  0  0  0  0  0  0  0  0  0  0  0
    5.0319   -4.2194   -3.7002 N   0  0  0  0  0  0  0  0  0  0  0  0
    5.0250   -3.8116   -2.4034 N   0  0  0  0  0  0  0  0  0  0  0  0
    3.8339   -3.2140   -2.3058 C   0  0  0  0  0  0  0  0  0  0  0  0
    3.3841   -2.3962   -1.1834 C   0  0  2  0  0  0  0  0  0  0  0  0
    4.1298   -1.0534   -1.1303 C   0  0  2  0  0  0  0  0  0  0  0  0
    3.8005   -0.2885   -2.4380 C   0  0  0  0  0  0  0  0  0  0  0  0
    5.6361   -1.1083   -0.8501 C   0  0  0  0  0  0  0  0  0  0  0  0
    5.3955   -0.8578    0.6171 C   0  0  2  0  0  0  0  0  0  0  0  0
    5.4405   -2.1042    1.3133 O   0  0  0  0  0  0  0  0  0  0  0  0
    4.2844   -2.9603    1.3339 C   0  0  1  0  0  0  0  0  0  0  0  0
    2.9476   -2.2391    1.3861 C   0  0  1  0  0  0  0  0  0  0  0  0
    2.8982   -0.7318    1.2355 C   0  0  0  0  0  0  0  0  0  0  0  0
    4.0036   -0.3247    0.2572 C   0  0  2  0  0  0  0  0  0  0  0  0
    3.3003   -3.1129    0.1802 C   0  0  1  0  0  0  0  0  0  0  0  0
    2.5873   -4.4508    0.0522 C   0  0  0  0  0  0  0  0  0  0  0  0
    1.1433   -3.0191   -3.1173 H   0  0  0  0  0  0  0  0  0  0  0  0
    1.5637   -3.4835   -4.7687 H   0  0  0  0  0  0  0  0  0  0  0  0
    1.9811   -1.8465   -4.2136 H   0  0  0  0  0  0  0  0  0  0  0  0
    2.3528   -2.1965   -1.4328 H   0  0  0  0  0  0  0  0  0  0  0  0
    4.2039    0.7014   -2.3415 H   0  0  0  0  0  0  0  0  0  0  0  0
    2.7056   -0.2185   -2.5698 H   0  0  0  0  0  0  0  0  0  0  0  0
    4.1863   -0.7604   -3.3554 H   0  0  0  0  0  0  0  0  0  0  0  0
    6.1650   -2.0287   -1.0664 H   0  0  0  0  0  0  0  0  0  0  0  0
    6.1307   -0.2539   -1.2887 H   0  0  0  0  0  0  0  0  0  0  0  0
    6.0556   -0.0968    1.0402 H   0  0  0  0  0  0  0  0  0  0  0  0
    4.4305   -3.8105    1.9932 H   0  0  0  0  0  0  0  0  0  0  0  0
    2.2128   -2.6377    2.0909 H   0  0  0  0  0  0  0  0  0  0  0  0
    1.9033   -0.4203    0.9125 H   0  0  0  0  0  0  0  0  0  0  0  0
    3.0344   -0.2603    2.2150 H   0  0  0  0  0  0  0  0  0  0  0  0
    4.1176    0.7588    0.1736 H   0  0  0  0  0  0  0  0  0  0  0  0
    2.4164   -4.8683    1.0511 H   0  0  0  0  0  0  0  0  0  0  0  0
    3.2030   -5.1564   -0.4971 H   0  0  0  0  0  0  0  0  0  0  0  0
    1.6275   -4.3450   -0.4521 H   0  0  0  0  0  0  0  0  0  0  0  0
  1  2  1  0
  1 19  1  0
  1 20  1  0
  1 21  1  0
  2  6  1  0
  2  3  1  0
  3  4  2  0
  4  5  1  0
  5  6  2  0
  6  7  1  0
  7 17  1  0
  7  8  1  0
  7 22  1  6
  8 16  1  0
  8  9  1  6
  8 10  1  0
  9 23  1  0
  9 24  1  0
  9 25  1  0
 10 11  1  0
 10 26  1  0
 10 27  1  0
 11 16  1  0
 11 12  1  0
 11 28  1  1
 12 13  1  0
 13 17  1  0
 13 14  1  0
 13 29  1  1
 14 15  1  0
 14 17  1  0
 14 30  1  1
 15 16  1  0
 15 31  1  0
 15 32  1  0
 16 33  1  6
 17 18  1  6
 18 34  1  0
 18 35  1  0
 18 36  1  0
M  END
>  <i_m_ct_stereo_status>  (147) 
1

>  <s_m_source_file>  (147) 
/var/tmp/pbs.5076255.sched01/tmpbrsd6n1o/39u_ie0p0h.sdf

>  <i_m_source_file_index>  (147) 
18

>  <i_lp_mmshare_version>  (147) 
48012

>  <i_f3d_flags>  (147) 
0

>  <s_epik_input>  (147) 
W0NIM11uMW5ubmMxW0NASF0yW0NAXTMoW0NIM10pW0NASF0oW0NIMl00KVtDQEBIXTNPW0NAQEhdKFtDSDJdNSlbQ0BIXTRbQ0BdMjVbQ0gzXQ==

>  <s_epik_cmdline>  (147) 
J2VwaWtfcHl0aG9uJywgJy1waHQnLCAnMi4wJywgJy1waCcsICc3LjAnLCAnLXRuJywgJzgnLCAnLW1hJywgJzIwMCcsICctaW1hZScsICc8aW5maWxlLm1hZT4nLCAnLW9tYWUnLCAnPG91dGZpbGUubWFlPic=

>  <r_lp_tautomer_probability>  (147) 
1

>  <r_epik_Ionization_Penalty>  (147) 
1.81464e-08

>  <r_epik_Ionization_Penalty_Charging>  (147) 
0

>  <r_epik_Ionization_Penalty_Neutral>  (147) 
1.81464e-08

>  <r_epik_State_Penalty>  (147) 
-0

>  <r_epik_Charging_Adjusted_Penalty>  (147) 
0

>  <i_epik_Tot_Q>  (147) 
0

>  <i_epik_Tot_abs_Q>  (147) 
0

>  <s_lp_Force_Field>  (147) 
OPLS3e

>  <r_lp_Energy>  (147) 
44.9098

>  <b_lp_Chiralities_Consistent>  (147) 
1

>  <s_lp_Variant>  (147) 
45:0-1

>  <s_i_glide_gridfile>  (147) 
pfpi4k_grid

>  <i_i_glide_lignum>  (147) 
18

>  <i_i_glide_rotatable_bonds>  (147) 
1

>  <r_i_docking_score>  (147) 
-3.21217

>  <r_i_glide_ligand_efficiency>  (147) 
-0.178454

>  <r_i_glide_ligand_efficiency_sa>  (147) 
-0.467681

>  <r_i_glide_ligand_efficiency_ln>  (147) 
-0.825671

>  <r_i_glide_gscore>  (147) 
-3.21217

>  <r_i_glide_lipo>  (147) 
-0.403866

>  <r_i_glide_hbond>  (147) 
0

>  <r_i_glide_metal>  (147) 
-0

>  <r_i_glide_rewards>  (147) 
-1.95509

>  <r_i_glide_evdw>  (147) 
-10.2792

>  <r_i_glide_ecoul>  (147) 
-3.45563

>  <r_i_glide_erotb>  (147) 
0.287226

>  <r_i_glide_esite>  (147) 
-0.108135

>  <r_i_glide_emodel>  (147) 
-16.668

>  <r_i_glide_energy>  (147) 
-13.7349

>  <r_i_glide_einternal>  (147) 
0.0125596

>  <r_i_glide_intrahb_reward>  (147) 
-0

>  <i_i_glide_confnum>  (147) 
1

>  <i_i_glide_posenum>  (147) 
2

>  <r_i_glide_eff_state_penalty>  (147) 
0

>  <ligand_id>  (147) 
45

>  <original_smiles>  (147) 
Cn1nnnc1C1C2(C)CC3OC4C(CC32)C41C

>  <smiles>  (147) 
[H]C([H])([H])n1nnnc1C1([H])C2(C([H])([H])[H])C([H])([H])C3([H])OC4([H])C([H])(C([H])([H])C32[H])C41C([H])([H])[H]

$$$$
45:0:2
     RDKit          3D

 36 40  0  0  1  0  0  0  0  0999 V2000
    5.0515   -4.9261    1.1790 C   0  0  0  0  0  0  0  0  0  0  0  0
    3.7105   -4.9530    0.5841 N   0  0  0  0  0  0  0  0  0  0  0  0
    2.8645   -5.9465    0.8836 N   0  0  0  0  0  0  0  0  0  0  0  0
    1.7986   -5.7736    0.1760 N   0  0  0  0  0  0  0  0  0  0  0  0
    1.8355   -4.6127   -0.5617 N   0  0  0  0  0  0  0  0  0  0  0  0
    3.0552   -4.1441   -0.2842 C   0  0  0  0  0  0  0  0  0  0  0  0
    3.5090   -2.8596   -0.8662 C   0  0  2  0  0  0  0  0  0  0  0  0
    4.0378   -2.9932   -2.3272 C   0  0  2  0  0  0  0  0  0  0  0  0
    2.8942   -3.2527   -3.3257 C   0  0  0  0  0  0  0  0  0  0  0  0
    5.2403   -3.9224   -2.5000 C   0  0  0  0  0  0  0  0  0  0  0  0
    6.1739   -2.7443   -2.3638 C   0  0  2  0  0  0  0  0  0  0  0  0
    6.6858   -2.5781   -1.0397 O   0  0  0  0  0  0  0  0  0  0  0  0
    5.9032   -1.9282   -0.0173 C   0  0  1  0  0  0  0  0  0  0  0  0
    5.0272   -0.7892   -0.5189 C   0  0  1  0  0  0  0  0  0  0  0  0
    4.8757   -0.5491   -2.0022 C   0  0  0  0  0  0  0  0  0  0  0  0
    4.9918   -1.8546   -2.7431 C   0  0  2  0  0  0  0  0  0  0  0  0
    4.3718   -2.0203    0.0876 C   0  0  1  0  0  0  0  0  0  0  0  0
    3.6923   -1.7822    1.4320 C   0  0  0  0  0  0  0  0  0  0  0  0
    5.7756   -4.6761    0.4142 H   0  0  0  0  0  0  0  0  0  0  0  0
    5.2763   -5.9428    1.5094 H   0  0  0  0  0  0  0  0  0  0  0  0
    5.0920   -4.2002    1.9894 H   0  0  0  0  0  0  0  0  0  0  0  0
    2.5869   -2.2768   -0.9586 H   0  0  0  0  0  0  0  0  0  0  0  0
    3.2899   -3.3351   -4.3418 H   0  0  0  0  0  0  0  0  0  0  0  0
    2.1481   -2.4586   -3.3238 H   0  0  0  0  0  0  0  0  0  0  0  0
    2.3600   -4.1869   -3.1561 H   0  0  0  0  0  0  0  0  0  0  0  0
    5.3652   -4.6743   -1.7254 H   0  0  0  0  0  0  0  0  0  0  0  0
    5.2869   -4.3527   -3.4985 H   0  0  0  0  0  0  0  0  0  0  0  0
    6.9623   -2.7581   -3.1067 H   0  0  0  0  0  0  0  0  0  0  0  0
    6.4692   -1.7774    0.8917 H   0  0  0  0  0  0  0  0  0  0  0  0
    5.0571    0.1371    0.0745 H   0  0  0  0  0  0  0  0  0  0  0  0
    3.9213   -0.0596   -2.2224 H   0  0  0  0  0  0  0  0  0  0  0  0
    5.6714    0.1237   -2.2933 H   0  0  0  0  0  0  0  0  0  0  0  0
    4.9612   -1.7442   -3.8359 H   0  0  0  0  0  0  0  0  0  0  0  0
    4.3442   -1.1689    2.0428 H   0  0  0  0  0  0  0  0  0  0  0  0
    3.5270   -2.7005    1.9783 H   0  0  0  0  0  0  0  0  0  0  0  0
    2.7574   -1.2292    1.3091 H   0  0  0  0  0  0  0  0  0  0  0  0
  1  2  1  0
  1 19  1  0
  1 20  1  0
  1 21  1  0
  2  6  1  0
  2  3  1  0
  3  4  2  0
  4  5  1  0
  5  6  2  0
  6  7  1  0
  7 17  1  0
  7  8  1  0
  7 22  1  6
  8 16  1  0
  8  9  1  6
  8 10  1  0
  9 23  1  0
  9 24  1  0
  9 25  1  0
 10 11  1  0
 10 26  1  0
 10 27  1  0
 11 16  1  0
 11 12  1  0
 11 28  1  6
 12 13  1  0
 13 17  1  0
 13 14  1  0
 13 29  1  1
 14 15  1  0
 14 17  1  0
 14 30  1  1
 15 16  1  0
 15 31  1  0
 15 32  1  0
 16 33  1  6
 17 18  1  1
 18 34  1  0
 18 35  1  0
 18 36  1  0
M  END
>  <i_m_ct_stereo_status>  (148) 
1

>  <s_m_source_file>  (148) 
/var/tmp/pbs.5076255.sched01/tmpbrsd6n1o/39u_ie0p0h.sdf

>  <i_m_source_file_index>  (148) 
18

>  <i_lp_mmshare_version>  (148) 
48012

>  <i_f3d_flags>  (148) 
0

>  <s_epik_input>  (148) 
W0NIM11uMW5ubmMxW0NASF0yW0NAXTMoW0NIM10pW0NASF0oW0NIMl00KVtDQEBIXTNPW0NAQEhdKFtDSDJdNSlbQ0BIXTRbQ0BdMjVbQ0gzXQ==

>  <s_epik_cmdline>  (148) 
J2VwaWtfcHl0aG9uJywgJy1waHQnLCAnMi4wJywgJy1waCcsICc3LjAnLCAnLXRuJywgJzgnLCAnLW1hJywgJzIwMCcsICctaW1hZScsICc8aW5maWxlLm1hZT4nLCAnLW9tYWUnLCAnPG91dGZpbGUubWFlPic=

>  <r_lp_tautomer_probability>  (148) 
1

>  <r_epik_Ionization_Penalty>  (148) 
1.81464e-08

>  <r_epik_Ionization_Penalty_Charging>  (148) 
0

>  <r_epik_Ionization_Penalty_Neutral>  (148) 
1.81464e-08

>  <r_epik_State_Penalty>  (148) 
-0

>  <r_epik_Charging_Adjusted_Penalty>  (148) 
0

>  <i_epik_Tot_Q>  (148) 
0

>  <i_epik_Tot_abs_Q>  (148) 
0

>  <s_lp_Force_Field>  (148) 
OPLS3e

>  <r_lp_Energy>  (148) 
44.9098

>  <b_lp_Chiralities_Consistent>  (148) 
1

>  <s_lp_Variant>  (148) 
45:0-1

>  <s_i_glide_gridfile>  (148) 
pfpi4k_grid

>  <i_i_glide_lignum>  (148) 
18

>  <i_i_glide_rotatable_bonds>  (148) 
1

>  <r_i_docking_score>  (148) 
-3.09724

>  <r_i_glide_ligand_efficiency>  (148) 
-0.172069

>  <r_i_glide_ligand_efficiency_sa>  (148) 
-0.450949

>  <r_i_glide_ligand_efficiency_ln>  (148) 
-0.796131

>  <r_i_glide_gscore>  (148) 
-3.09724

>  <r_i_glide_lipo>  (148) 
-0.260498

>  <r_i_glide_hbond>  (148) 
-0.0404299

>  <r_i_glide_metal>  (148) 
-0

>  <r_i_glide_rewards>  (148) 
-1.72972

>  <r_i_glide_evdw>  (148) 
-14.3094

>  <r_i_glide_ecoul>  (148) 
-2.88652

>  <r_i_glide_erotb>  (148) 
0.287226

>  <r_i_glide_esite>  (148) 
-0.205376

>  <r_i_glide_emodel>  (148) 
-19.662

>  <r_i_glide_energy>  (148) 
-17.1959

>  <r_i_glide_einternal>  (148) 
2.36082

>  <r_i_glide_intrahb_reward>  (148) 
-0

>  <i_i_glide_confnum>  (148) 
2

>  <i_i_glide_posenum>  (148) 
34

>  <r_i_glide_eff_state_penalty>  (148) 
0

>  <ligand_id>  (148) 
45

>  <original_smiles>  (148) 
Cn1nnnc1C1C2(C)CC3OC4C(CC32)C41C

>  <smiles>  (148) 
[H]C([H])([H])n1nnnc1C1([H])C2(C([H])([H])[H])C([H])([H])C3([H])OC4([H])C([H])(C([H])([H])C32[H])C41C([H])([H])[H]

$$$$
46:0:0
     RDKit          3D

 47 52  0  0  1  0  0  0  0  0999 V2000
    3.4785   -3.7841    6.2071 O   0  0  0  0  0  0  0  0  0  0  0  0
    4.1080   -4.2247    5.0835 C   0  0  0  0  0  0  0  0  0  0  0  0
    5.1904   -5.1302    5.1562 C   0  0  0  0  0  0  0  0  0  0  0  0
    5.9481   -5.4996    4.0132 C   0  0  0  0  0  0  0  0  0  0  0  0
    5.5472   -4.9996    2.7539 C   0  0  0  0  0  0  0  0  0  0  0  0
    4.3844   -4.2367    2.7448 C   0  0  0  0  0  0  0  0  0  0  0  0
    3.7044   -3.7168    3.8191 C   0  0  0  0  0  0  0  0  0  0  0  0
    2.8659   -2.6790    3.5083 O   0  0  0  0  0  0  0  0  0  0  0  0
    2.8188   -2.5690    2.0676 C   0  0  1  0  0  0  0  0  0  0  0  0
    3.1757   -1.2582    1.3182 C   0  0  0  0  0  0  0  0  0  0  0  0
    4.2973   -1.6371    0.2735 C   0  0  2  0  0  0  0  0  0  0  0  0
    3.7231   -2.2586   -0.9737 N   0  0  1  0  0  0  0  0  0  0  0  0
    4.6658   -2.4181   -2.1335 C   0  0  0  0  0  0  0  0  0  0  0  0
    3.9418   -2.3492   -3.4598 C   0  0  0  0  0  0  0  0  0  0  0  0
    3.0092   -1.2164   -3.7719 C   0  0  0  0  0  0  0  0  0  0  0  0
    2.4519   -2.6140   -3.6191 C   0  0  0  0  0  0  0  0  0  0  0  0
    2.8576   -3.4620   -0.7299 C   0  0  0  0  0  0  0  0  0  0  0  0
    3.3466   -4.3662    0.4052 C   0  0  0  0  0  0  0  0  0  0  0  0
    3.9199   -3.5018    1.5596 C   0  0  2  0  0  0  0  0  0  0  0  0
    5.1097   -2.6598    1.0937 C   0  0  2  0  0  0  0  0  0  0  0  0
    5.7527   -1.8938    2.1110 O   0  0  0  0  0  0  0  0  0  0  0  0
    6.2271   -3.6348    0.5850 C   0  0  0  0  0  0  0  0  0  0  0  0
    6.3584   -4.9532    1.4471 C   0  0  0  0  0  0  0  0  0  0  0  0
    3.8552   -4.1578    6.9928 H   0  0  0  0  0  0  0  0  0  0  0  0
    5.5279   -5.4828    6.1183 H   0  0  0  0  0  0  0  0  0  0  0  0
    6.8651   -6.0681    4.1067 H   0  0  0  0  0  0  0  0  0  0  0  0
    1.8247   -2.9076    1.7726 H   0  0  0  0  0  0  0  0  0  0  0  0
    2.3027   -0.7951    0.8585 H   0  0  0  0  0  0  0  0  0  0  0  0
    3.5532   -0.5294    2.0285 H   0  0  0  0  0  0  0  0  0  0  0  0
    4.8846   -0.7582    0.0088 H   0  0  0  0  0  0  0  0  0  0  0  0
    5.4321   -1.6409   -2.0917 H   0  0  0  0  0  0  0  0  0  0  0  0
    5.1715   -3.3826   -2.0986 H   0  0  0  0  0  0  0  0  0  0  0  0
    4.6119   -2.6641   -4.2606 H   0  0  0  0  0  0  0  0  0  0  0  0
    2.8324   -0.5112   -2.9658 H   0  0  0  0  0  0  0  0  0  0  0  0
    2.9782   -0.7777   -4.7805 H   0  0  0  0  0  0  0  0  0  0  0  0
    2.1895   -3.1509   -4.5372 H   0  0  0  0  0  0  0  0  0  0  0  0
    1.8153   -2.7694   -2.7407 H   0  0  0  0  0  0  0  0  0  0  0  0
    1.8532   -3.1002   -0.5064 H   0  0  0  0  0  0  0  0  0  0  0  0
    2.7481   -4.0203   -1.6607 H   0  0  0  0  0  0  0  0  0  0  0  0
    2.5109   -4.9784    0.7500 H   0  0  0  0  0  0  0  0  0  0  0  0
    4.0817   -5.0621    0.0054 H   0  0  0  0  0  0  0  0  0  0  0  0
    5.0850   -1.4874    2.6462 H   0  0  0  0  0  0  0  0  0  0  0  0
    6.0662   -3.9703   -0.4340 H   0  0  0  0  0  0  0  0  0  0  0  0
    7.1756   -3.0928    0.5571 H   0  0  0  0  0  0  0  0  0  0  0  0
    7.4142   -5.1065    1.6755 H   0  0  0  0  0  0  0  0  0  0  0  0
    6.0645   -5.8001    0.8217 H   0  0  0  0  0  0  0  0  0  0  0  0
    3.0717   -1.5509   -1.3102 H   0  0  0  0  0  0  0  0  0  0  0  0
  1  2  1  0
  1 24  1  0
  2  7  2  0
  2  3  1  0
  3  4  2  0
  3 25  1  0
  4  5  1  0
  4 26  1  0
  5 23  1  0
  5  6  2  0
  6 19  1  0
  6  7  1  0
  7  8  1  0
  8  9  1  0
  9 19  1  0
  9 10  1  0
  9 27  1  6
 10 11  1  0
 10 28  1  0
 10 29  1  0
 11 20  1  0
 11 12  1  0
 11 30  1  6
 12 13  1  0
 12 17  1  0
 12 47  1  6
 13 14  1  0
 13 31  1  0
 13 32  1  0
 14 16  1  0
 14 15  1  0
 14 33  1  0
 15 16  1  0
 15 34  1  0
 15 35  1  0
 16 36  1  0
 16 37  1  0
 17 18  1  0
 17 38  1  0
 17 39  1  0
 19 18  1  6
 18 40  1  0
 18 41  1  0
 19 20  1  0
 20 21  1  1
 20 22  1  0
 21 42  1  0
 22 23  1  0
 22 43  1  0
 22 44  1  0
 23 45  1  0
 23 46  1  0
M  CHG  1  12   1
M  END
>  <i_m_ct_stereo_status>  (149) 
1

>  <s_m_source_file>  (149) 
/var/tmp/pbs.5076255.sched01/tmpbrsd6n1o/39u_ie0p0h.sdf

>  <i_m_source_file_index>  (149) 
19

>  <i_lp_mmshare_version>  (149) 
48012

>  <i_f3d_flags>  (149) 
0

>  <s_epik_input>  (149) 
W0NAQF0xMjNjNGM1W2NIXVtjSF1jKFtPSF0pYzRPW0NASF0xW0NIMl1bQ0BASF0oW0NAXTMoW09IXSlbQ0gyXVtDSDJdNSlOKFtDSDJdW0NIMl0yKVtDSDJdW0NIXTZbQ0gyXVtDSDJdNg==

>  <s_epik_cmdline>  (149) 
J2VwaWtfcHl0aG9uJywgJy1waHQnLCAnMi4wJywgJy1waCcsICc3LjAnLCAnLXRuJywgJzgnLCAnLW1hJywgJzIwMCcsICctaW1hZScsICc8aW5maWxlLm1hZT4nLCAnLW9tYWUnLCAnPG91dGZpbGUubWFlPic=

>  <r_lp_tautomer_probability>  (149) 
1

>  <r_epik_Ionization_Penalty>  (149) 
0.0149604

>  <r_epik_Ionization_Penalty_Charging>  (149) 
0.0119299

>  <r_epik_Ionization_Penalty_Neutral>  (149) 
0.00303052

>  <r_epik_State_Penalty>  (149) 
0.00920787

>  <r_epik_Charging_Adjusted_Penalty>  (149) 
0.0211377

>  <i_epik_Tot_Q>  (149) 
1

>  <i_epik_Tot_abs_Q>  (149) 
1

>  <s_lp_Force_Field>  (149) 
OPLS3e

>  <r_lp_Energy>  (149) 
82.87

>  <b_lp_Chiralities_Consistent>  (149) 
1

>  <s_lp_Variant>  (149) 
46:0-1

>  <s_i_glide_gridfile>  (149) 
pfpi4k_grid

>  <i_i_glide_lignum>  (149) 
19

>  <i_i_glide_rotatable_bonds>  (149) 
4

>  <r_i_docking_score>  (149) 
-3.64884

>  <r_i_glide_ligand_efficiency>  (149) 
-0.158645

>  <r_i_glide_ligand_efficiency_sa>  (149) 
-0.451165

>  <r_i_glide_ligand_efficiency_ln>  (149) 
-0.882322

>  <r_i_glide_gscore>  (149) 
-3.64884

>  <r_i_glide_lipo>  (149) 
-0.919608

>  <r_i_glide_hbond>  (149) 
0

>  <r_i_glide_metal>  (149) 
-0

>  <r_i_glide_rewards>  (149) 
-1.26546

>  <r_i_glide_evdw>  (149) 
-23.9803

>  <r_i_glide_ecoul>  (149) 
-3.95096

>  <r_i_glide_erotb>  (149) 
0.376094

>  <r_i_glide_esite>  (149) 
-0.0481981

>  <r_i_glide_emodel>  (149) 
-29.6591

>  <r_i_glide_energy>  (149) 
-27.9313

>  <r_i_glide_einternal>  (149) 
7.45389

>  <r_i_glide_intrahb_reward>  (149) 
-0

>  <i_i_glide_confnum>  (149) 
4

>  <i_i_glide_posenum>  (149) 
37

>  <r_i_glide_eff_state_penalty>  (149) 
0

>  <ligand_id>  (149) 
46

>  <original_smiles>  (149) 
Oc1ccc2c3c1OC1CC4N(CC5CC5)CCC31C4(O)CC2

>  <smiles>  (149) 
[H]Oc1c([H])c([H])c2c3c1OC1([H])C([H])([H])C4([H])C(O[H])(C([H])([H])C2([H])[H])C31C([H])([H])C([H])([H])[N+]4([H])C([H])([H])C1([H])C([H])([H])C1([H])[H]

$$$$
46:0:1
     RDKit          3D

 47 52  0  0  1  0  0  0  0  0999 V2000
    4.4985   -4.7051    5.9890 O   0  0  0  0  0  0  0  0  0  0  0  0
    4.6755   -3.6269    5.1751 C   0  0  0  0  0  0  0  0  0  0  0  0
    4.8460   -2.3324    5.7316 C   0  0  0  0  0  0  0  0  0  0  0  0
    4.8911   -1.1740    4.9068 C   0  0  0  0  0  0  0  0  0  0  0  0
    4.8593   -1.3227    3.5080 C   0  0  0  0  0  0  0  0  0  0  0  0
    4.8549   -2.6429    3.0407 C   0  0  0  0  0  0  0  0  0  0  0  0
    4.6454   -3.7932    3.7756 C   0  0  0  0  0  0  0  0  0  0  0  0
    4.2519   -4.8792    3.0238 O   0  0  0  0  0  0  0  0  0  0  0  0
    4.3779   -4.5074    1.6307 C   0  0  1  0  0  0  0  0  0  0  0  0
    3.1785   -4.5911    0.6424 C   0  0  0  0  0  0  0  0  0  0  0  0
    3.0357   -3.1529    0.0086 C   0  0  2  0  0  0  0  0  0  0  0  0
    3.9998   -2.9341   -1.1158 N   0  0  1  0  0  0  0  0  0  0  0  0
    3.7644   -1.7053   -1.9203 C   0  0  0  0  0  0  0  0  0  0  0  0
    3.3180   -2.0578   -3.3208 C   0  0  0  0  0  0  0  0  0  0  0  0
    2.2184   -3.0661   -3.5245 C   0  0  0  0  0  0  0  0  0  0  0  0
    3.6324   -3.4065   -3.9374 C   0  0  0  0  0  0  0  0  0  0  0  0
    5.4327   -3.1848   -0.7799 C   0  0  0  0  0  0  0  0  0  0  0  0
    5.8130   -2.7046    0.6383 C   0  0  0  0  0  0  0  0  0  0  0  0
    4.6538   -2.9983    1.6314 C   0  0  2  0  0  0  0  0  0  0  0  0
    3.3775   -2.2732    1.2172 C   0  0  2  0  0  0  0  0  0  0  0  0
    2.2924   -2.4243    2.1282 O   0  0  0  0  0  0  0  0  0  0  0  0
    3.6502   -0.7373    1.2186 C   0  0  0  0  0  0  0  0  0  0  0  0
    4.5572   -0.2741    2.4197 C   0  0  0  0  0  0  0  0  0  0  0  0
    4.3941   -5.5091    5.5039 H   0  0  0  0  0  0  0  0  0  0  0  0
    4.8385   -2.2140    6.8028 H   0  0  0  0  0  0  0  0  0  0  0  0
    4.8751   -0.1897    5.3523 H   0  0  0  0  0  0  0  0  0  0  0  0
    5.2224   -5.0807    1.2427 H   0  0  0  0  0  0  0  0  0  0  0  0
    3.3109   -5.3814   -0.1008 H   0  0  0  0  0  0  0  0  0  0  0  0
    2.2766   -4.8445    1.2006 H   0  0  0  0  0  0  0  0  0  0  0  0
    2.0168   -3.0039   -0.3470 H   0  0  0  0  0  0  0  0  0  0  0  0
    2.9975   -1.0672   -1.4820 H   0  0  0  0  0  0  0  0  0  0  0  0
    4.6634   -1.0914   -1.9951 H   0  0  0  0  0  0  0  0  0  0  0  0
    3.2910   -1.1998   -3.9914 H   0  0  0  0  0  0  0  0  0  0  0  0
    1.7995   -3.5480   -2.6409 H   0  0  0  0  0  0  0  0  0  0  0  0
    1.5012   -2.8928   -4.3227 H   0  0  0  0  0  0  0  0  0  0  0  0
    3.8201   -3.4417   -5.0039 H   0  0  0  0  0  0  0  0  0  0  0  0
    4.2068   -4.1293   -3.3595 H   0  0  0  0  0  0  0  0  0  0  0  0
    5.6028   -4.2573   -0.8696 H   0  0  0  0  0  0  0  0  0  0  0  0
    6.0912   -2.7453   -1.5272 H   0  0  0  0  0  0  0  0  0  0  0  0
    6.7255   -3.2113    0.9585 H   0  0  0  0  0  0  0  0  0  0  0  0
    6.0545   -1.6419    0.6022 H   0  0  0  0  0  0  0  0  0  0  0  0
    2.5344   -1.9836    2.9301 H   0  0  0  0  0  0  0  0  0  0  0  0
    4.1352   -0.4032    0.3056 H   0  0  0  0  0  0  0  0  0  0  0  0
    2.6987   -0.2014    1.2357 H   0  0  0  0  0  0  0  0  0  0  0  0
    4.0923    0.5847    2.9052 H   0  0  0  0  0  0  0  0  0  0  0  0
    5.5108    0.0809    2.0296 H   0  0  0  0  0  0  0  0  0  0  0  0
    3.7693   -3.6629   -1.7754 H   0  0  0  0  0  0  0  0  0  0  0  0
  1  2  1  0
  1 24  1  0
  2  7  2  0
  2  3  1  0
  3  4  2  0
  3 25  1  0
  4  5  1  0
  4 26  1  0
  5 23  1  0
  5  6  2  0
  6 19  1  0
  6  7  1  0
  7  8  1  0
  8  9  1  0
  9 19  1  0
  9 10  1  0
  9 27  1  6
 10 11  1  0
 10 28  1  0
 10 29  1  0
 11 20  1  0
 11 12  1  0
 11 30  1  6
 12 13  1  0
 12 17  1  0
 12 47  1  6
 13 14  1  0
 13 31  1  0
 13 32  1  0
 14 16  1  0
 14 15  1  0
 14 33  1  0
 15 16  1  0
 15 34  1  0
 15 35  1  0
 16 36  1  0
 16 37  1  0
 17 18  1  0
 17 38  1  0
 17 39  1  0
 19 18  1  6
 18 40  1  0
 18 41  1  0
 19 20  1  0
 20 21  1  1
 20 22  1  0
 21 42  1  0
 22 23  1  0
 22 43  1  0
 22 44  1  0
 23 45  1  0
 23 46  1  0
M  CHG  1  12   1
M  END
>  <i_m_ct_stereo_status>  (150) 
1

>  <s_m_source_file>  (150) 
/var/tmp/pbs.5076255.sched01/tmpbrsd6n1o/39u_ie0p0h.sdf

>  <i_m_source_file_index>  (150) 
19

>  <i_lp_mmshare_version>  (150) 
48012

>  <i_f3d_flags>  (150) 
0

>  <s_epik_input>  (150) 
W0NAQF0xMjNjNGM1W2NIXVtjSF1jKFtPSF0pYzRPW0NASF0xW0NIMl1bQ0BASF0oW0NAXTMoW09IXSlbQ0gyXVtDSDJdNSlOKFtDSDJdW0NIMl0yKVtDSDJdW0NIXTZbQ0gyXVtDSDJdNg==

>  <s_epik_cmdline>  (150) 
J2VwaWtfcHl0aG9uJywgJy1waHQnLCAnMi4wJywgJy1waCcsICc3LjAnLCAnLXRuJywgJzgnLCAnLW1hJywgJzIwMCcsICctaW1hZScsICc8aW5maWxlLm1hZT4nLCAnLW9tYWUnLCAnPG91dGZpbGUubWFlPic=

>  <r_lp_tautomer_probability>  (150) 
1

>  <r_epik_Ionization_Penalty>  (150) 
0.0149604

>  <r_epik_Ionization_Penalty_Charging>  (150) 
0.0119299

>  <r_epik_Ionization_Penalty_Neutral>  (150) 
0.00303052

>  <r_epik_State_Penalty>  (150) 
0.00920787

>  <r_epik_Charging_Adjusted_Penalty>  (150) 
0.0211377

>  <i_epik_Tot_Q>  (150) 
1

>  <i_epik_Tot_abs_Q>  (150) 
1

>  <s_lp_Force_Field>  (150) 
OPLS3e

>  <r_lp_Energy>  (150) 
82.87

>  <b_lp_Chiralities_Consistent>  (150) 
1

>  <s_lp_Variant>  (150) 
46:0-1

>  <s_i_glide_gridfile>  (150) 
pfpi4k_grid

>  <i_i_glide_lignum>  (150) 
19

>  <i_i_glide_rotatable_bonds>  (150) 
4

>  <r_i_docking_score>  (150) 
-3.29678

>  <r_i_glide_ligand_efficiency>  (150) 
-0.143338

>  <r_i_glide_ligand_efficiency_sa>  (150) 
-0.407635

>  <r_i_glide_ligand_efficiency_ln>  (150) 
-0.797191

>  <r_i_glide_gscore>  (150) 
-3.29678

>  <r_i_glide_lipo>  (150) 
-0.864709

>  <r_i_glide_hbond>  (150) 
0

>  <r_i_glide_metal>  (150) 
-0

>  <r_i_glide_rewards>  (150) 
-1.26546

>  <r_i_glide_evdw>  (150) 
-24.2065

>  <r_i_glide_ecoul>  (150) 
-2.13895

>  <r_i_glide_erotb>  (150) 
0.376094

>  <r_i_glide_esite>  (150) 
-0.0115306

>  <r_i_glide_emodel>  (150) 
-28.375

>  <r_i_glide_energy>  (150) 
-26.3455

>  <r_i_glide_einternal>  (150) 
8.42937

>  <r_i_glide_intrahb_reward>  (150) 
-0

>  <i_i_glide_confnum>  (150) 
2

>  <i_i_glide_posenum>  (150) 
33

>  <r_i_glide_eff_state_penalty>  (150) 
0

>  <ligand_id>  (150) 
46

>  <original_smiles>  (150) 
Oc1ccc2c3c1OC1CC4N(CC5CC5)CCC31C4(O)CC2

>  <smiles>  (150) 
[H]Oc1c([H])c([H])c2c3c1OC1([H])C([H])([H])C4([H])C(O[H])(C([H])([H])C2([H])[H])C31C([H])([H])C([H])([H])[N+]4([H])C([H])([H])C1([H])C([H])([H])C1([H])[H]

$$$$
46:0:2
     RDKit          3D

 47 52  0  0  1  0  0  0  0  0999 V2000
    6.5391   -6.2390    3.4174 O   0  0  0  0  0  0  0  0  0  0  0  0
    5.6789   -5.2166    3.1541 C   0  0  0  0  0  0  0  0  0  0  0  0
    4.7075   -4.8323    4.1260 C   0  0  0  0  0  0  0  0  0  0  0  0
    3.7128   -3.8611    3.8478 C   0  0  0  0  0  0  0  0  0  0  0  0
    3.7639   -3.1960    2.6096 C   0  0  0  0  0  0  0  0  0  0  0  0
    4.8387   -3.5185    1.7690 C   0  0  0  0  0  0  0  0  0  0  0  0
    5.7166   -4.5639    1.9033 C   0  0  0  0  0  0  0  0  0  0  0  0
    6.3746   -4.8949    0.7334 O   0  0  0  0  0  0  0  0  0  0  0  0
    6.0533   -3.8876   -0.2461 C   0  0  1  0  0  0  0  0  0  0  0  0
    5.3979   -4.2431   -1.6076 C   0  0  0  0  0  0  0  0  0  0  0  0
    4.0946   -3.4301   -1.7528 C   0  0  2  0  0  0  0  0  0  0  0  0
    4.3721   -2.0515   -2.2485 N   0  0  1  0  0  0  0  0  0  0  0  0
    3.1668   -1.2735   -2.6426 C   0  0  0  0  0  0  0  0  0  0  0  0
    3.1045   -1.0206   -4.1301 C   0  0  0  0  0  0  0  0  0  0  0  0
    3.7865    0.1861   -4.7210 C   0  0  0  0  0  0  0  0  0  0  0  0
    2.2964    0.1339   -4.6928 C   0  0  0  0  0  0  0  0  0  0  0  0
    5.3569   -1.3085   -1.4094 C   0  0  0  0  0  0  0  0  0  0  0  0
    5.2388   -1.5721    0.1119 C   0  0  0  0  0  0  0  0  0  0  0  0
    4.9351   -3.0705    0.3740 C   0  0  2  0  0  0  0  0  0  0  0  0
    3.6378   -3.5031   -0.2809 C   0  0  2  0  0  0  0  0  0  0  0  0
    3.2242   -4.8529   -0.0262 O   0  0  0  0  0  0  0  0  0  0  0  0
    2.5566   -2.6543    0.3555 C   0  0  0  0  0  0  0  0  0  0  0  0
    2.6536   -2.4134    1.9039 C   0  0  0  0  0  0  0  0  0  0  0  0
    6.3787   -6.6472    4.2551 H   0  0  0  0  0  0  0  0  0  0  0  0
    4.6500   -5.3525    5.0659 H   0  0  0  0  0  0  0  0  0  0  0  0
    2.8792   -3.6896    4.5226 H   0  0  0  0  0  0  0  0  0  0  0  0
    6.9661   -3.3176   -0.4051 H   0  0  0  0  0  0  0  0  0  0  0  0
    6.0801   -4.0929   -2.4505 H   0  0  0  0  0  0  0  0  0  0  0  0
    5.1221   -5.2944   -1.5847 H   0  0  0  0  0  0  0  0  0  0  0  0
    3.3885   -3.8714   -2.4590 H   0  0  0  0  0  0  0  0  0  0  0  0
    2.2516   -1.7929   -2.3483 H   0  0  0  0  0  0  0  0  0  0  0  0
    3.1658   -0.3150   -2.1395 H   0  0  0  0  0  0  0  0  0  0  0  0
    3.0504   -1.9317   -4.7175 H   0  0  0  0  0  0  0  0  0  0  0  0
    4.2459    0.9032   -4.0416 H   0  0  0  0  0  0  0  0  0  0  0  0
    4.2119    0.0847   -5.7036 H   0  0  0  0  0  0  0  0  0  0  0  0
    1.7363   -0.0633   -5.5893 H   0  0  0  0  0  0  0  0  0  0  0  0
    1.7891    0.7772   -3.9871 H   0  0  0  0  0  0  0  0  0  0  0  0
    6.3495   -1.5891   -1.7587 H   0  0  0  0  0  0  0  0  0  0  0  0
    5.2972   -0.2547   -1.6277 H   0  0  0  0  0  0  0  0  0  0  0  0
    6.1738   -1.2801    0.5915 H   0  0  0  0  0  0  0  0  0  0  0  0
    4.4850   -0.9043    0.5252 H   0  0  0  0  0  0  0  0  0  0  0  0
    3.0644   -5.2869   -0.8591 H   0  0  0  0  0  0  0  0  0  0  0  0
    2.6490   -1.6500   -0.0667 H   0  0  0  0  0  0  0  0  0  0  0  0
    1.5923   -3.0460    0.0528 H   0  0  0  0  0  0  0  0  0  0  0  0
    1.6891   -2.6392    2.3639 H   0  0  0  0  0  0  0  0  0  0  0  0
    2.8127   -1.3465    2.0678 H   0  0  0  0  0  0  0  0  0  0  0  0
    4.8467   -2.1745   -3.1303 H   0  0  0  0  0  0  0  0  0  0  0  0
  1  2  1  0
  1 24  1  0
  2  7  2  0
  2  3  1  0
  3  4  2  0
  3 25  1  0
  4  5  1  0
  4 26  1  0
  5 23  1  0
  5  6  2  0
  6 19  1  0
  6  7  1  0
  7  8  1  0
  8  9  1  0
  9 19  1  0
  9 10  1  0
  9 27  1  6
 10 11  1  0
 10 28  1  0
 10 29  1  0
 11 20  1  0
 11 12  1  0
 11 30  1  6
 12 13  1  0
 12 17  1  0
 12 47  1  6
 13 14  1  0
 13 31  1  0
 13 32  1  0
 14 16  1  0
 14 15  1  0
 14 33  1  0
 15 16  1  0
 15 34  1  0
 15 35  1  0
 16 36  1  0
 16 37  1  0
 17 18  1  0
 17 38  1  0
 17 39  1  0
 19 18  1  1
 18 40  1  0
 18 41  1  0
 19 20  1  0
 20 21  1  1
 20 22  1  0
 21 42  1  0
 22 23  1  0
 22 43  1  0
 22 44  1  0
 23 45  1  0
 23 46  1  0
M  CHG  1  12   1
M  END
>  <i_m_ct_stereo_status>  (151) 
1

>  <s_m_source_file>  (151) 
/var/tmp/pbs.5076255.sched01/tmpbrsd6n1o/39u_ie0p0h.sdf

>  <i_m_source_file_index>  (151) 
19

>  <i_lp_mmshare_version>  (151) 
48012

>  <i_f3d_flags>  (151) 
0

>  <s_epik_input>  (151) 
W0NAQF0xMjNjNGM1W2NIXVtjSF1jKFtPSF0pYzRPW0NASF0xW0NIMl1bQ0BASF0oW0NAXTMoW09IXSlbQ0gyXVtDSDJdNSlOKFtDSDJdW0NIMl0yKVtDSDJdW0NIXTZbQ0gyXVtDSDJdNg==

>  <s_epik_cmdline>  (151) 
J2VwaWtfcHl0aG9uJywgJy1waHQnLCAnMi4wJywgJy1waCcsICc3LjAnLCAnLXRuJywgJzgnLCAnLW1hJywgJzIwMCcsICctaW1hZScsICc8aW5maWxlLm1hZT4nLCAnLW9tYWUnLCAnPG91dGZpbGUubWFlPic=

>  <r_lp_tautomer_probability>  (151) 
1

>  <r_epik_Ionization_Penalty>  (151) 
0.0149604

>  <r_epik_Ionization_Penalty_Charging>  (151) 
0.0119299

>  <r_epik_Ionization_Penalty_Neutral>  (151) 
0.00303052

>  <r_epik_State_Penalty>  (151) 
0.00920787

>  <r_epik_Charging_Adjusted_Penalty>  (151) 
0.0211377

>  <i_epik_Tot_Q>  (151) 
1

>  <i_epik_Tot_abs_Q>  (151) 
1

>  <s_lp_Force_Field>  (151) 
OPLS3e

>  <r_lp_Energy>  (151) 
82.87

>  <b_lp_Chiralities_Consistent>  (151) 
1

>  <s_lp_Variant>  (151) 
46:0-1

>  <s_i_glide_gridfile>  (151) 
pfpi4k_grid

>  <i_i_glide_lignum>  (151) 
19

>  <i_i_glide_rotatable_bonds>  (151) 
4

>  <r_i_docking_score>  (151) 
-2.98691

>  <r_i_glide_ligand_efficiency>  (151) 
-0.129866

>  <r_i_glide_ligand_efficiency_sa>  (151) 
-0.36932

>  <r_i_glide_ligand_efficiency_ln>  (151) 
-0.722261

>  <r_i_glide_gscore>  (151) 
-2.98691

>  <r_i_glide_lipo>  (151) 
-0.527035

>  <r_i_glide_hbond>  (151) 
0

>  <r_i_glide_metal>  (151) 
-0

>  <r_i_glide_rewards>  (151) 
-1.26546

>  <r_i_glide_evdw>  (151) 
-12.7647

>  <r_i_glide_ecoul>  (151) 
-6.20198

>  <r_i_glide_erotb>  (151) 
0.376094

>  <r_i_glide_esite>  (151) 
-0.00197188

>  <r_i_glide_emodel>  (151) 
-22.9567

>  <r_i_glide_energy>  (151) 
-18.9667

>  <r_i_glide_einternal>  (151) 
2.39516

>  <r_i_glide_intrahb_reward>  (151) 
-0

>  <i_i_glide_confnum>  (151) 
2

>  <i_i_glide_posenum>  (151) 
2

>  <r_i_glide_eff_state_penalty>  (151) 
0

>  <ligand_id>  (151) 
46

>  <original_smiles>  (151) 
Oc1ccc2c3c1OC1CC4N(CC5CC5)CCC31C4(O)CC2

>  <smiles>  (151) 
[H]Oc1c([H])c([H])c2c3c1OC1([H])C([H])([H])C4([H])C(O[H])(C([H])([H])C2([H])[H])C31C([H])([H])C([H])([H])[N+]4([H])C([H])([H])C1([H])C([H])([H])C1([H])[H]

$$$$
46:1:0
     RDKit          3D

 46 51  0  0  1  0  0  0  0  0999 V2000
    4.7029   -0.5080    4.6954 O   0  0  0  0  0  0  0  0  0  0  0  0
    4.6645   -1.6901    4.0208 C   0  0  0  0  0  0  0  0  0  0  0  0
    5.0460   -2.9019    4.6540 C   0  0  0  0  0  0  0  0  0  0  0  0
    5.1755   -4.1155    3.9285 C   0  0  0  0  0  0  0  0  0  0  0  0
    4.8420   -4.1354    2.5647 C   0  0  0  0  0  0  0  0  0  0  0  0
    4.3211   -2.9422    2.0516 C   0  0  0  0  0  0  0  0  0  0  0  0
    4.3229   -1.7040    2.6592 C   0  0  0  0  0  0  0  0  0  0  0  0
    4.1738   -0.6488    1.7926 O   0  0  0  0  0  0  0  0  0  0  0  0
    3.8751   -1.2280    0.5106 C   0  0  1  0  0  0  0  0  0  0  0  0
    4.7226   -0.8945   -0.7137 C   0  0  0  0  0  0  0  0  0  0  0  0
    5.1623   -2.2708   -1.3582 C   0  0  2  0  0  0  0  0  0  0  0  0
    4.1741   -2.9738   -2.2070 N   0  0  0  0  0  0  0  0  0  0  0  0
    4.0826   -2.5224   -3.6045 C   0  0  0  0  0  0  0  0  0  0  0  0
    3.8889   -1.0177   -3.7939 C   0  0  0  0  0  0  0  0  0  0  0  0
    2.6093   -0.4784   -4.3848 C   0  0  0  0  0  0  0  0  0  0  0  0
    3.8804   -0.3718   -5.1436 C   0  0  0  0  0  0  0  0  0  0  0  0
    2.8585   -3.1188   -1.5733 C   0  0  0  0  0  0  0  0  0  0  0  0
    2.9134   -3.4693   -0.0624 C   0  0  0  0  0  0  0  0  0  0  0  0
    4.1012   -2.7310    0.6213 C   0  0  2  0  0  0  0  0  0  0  0  0
    5.4201   -3.0697   -0.0660 C   0  0  2  0  0  0  0  0  0  0  0  0
    6.5654   -2.4920    0.5597 O   0  0  0  0  0  0  0  0  0  0  0  0
    5.6439   -4.6080    0.0599 C   0  0  0  0  0  0  0  0  0  0  0  0
    5.2139   -5.1690    1.4782 C   0  0  0  0  0  0  0  0  0  0  0  0
    4.3888    0.2155    4.1701 H   0  0  0  0  0  0  0  0  0  0  0  0
    5.3534   -2.8744    5.6852 H   0  0  0  0  0  0  0  0  0  0  0  0
    5.6236   -4.9885    4.3906 H   0  0  0  0  0  0  0  0  0  0  0  0
    2.8263   -0.9821    0.3263 H   0  0  0  0  0  0  0  0  0  0  0  0
    4.0398   -0.2789   -1.2834 H   0  0  0  0  0  0  0  0  0  0  0  0
    5.5859   -0.2793   -0.4623 H   0  0  0  0  0  0  0  0  0  0  0  0
    6.0878   -2.1644   -1.9221 H   0  0  0  0  0  0  0  0  0  0  0  0
    4.9910   -2.8346   -4.1356 H   0  0  0  0  0  0  0  0  0  0  0  0
    3.2596   -3.0641   -4.1055 H   0  0  0  0  0  0  0  0  0  0  0  0
    4.5355   -0.3981   -3.1763 H   0  0  0  0  0  0  0  0  0  0  0  0
    1.8640   -1.2093   -4.6990 H   0  0  0  0  0  0  0  0  0  0  0  0
    2.2109    0.4156   -3.9212 H   0  0  0  0  0  0  0  0  0  0  0  0
    4.3979    0.5853   -5.1448 H   0  0  0  0  0  0  0  0  0  0  0  0
    4.0912   -1.0501   -5.9548 H   0  0  0  0  0  0  0  0  0  0  0  0
    2.2966   -2.2013   -1.7297 H   0  0  0  0  0  0  0  0  0  0  0  0
    2.2793   -3.8724   -2.1086 H   0  0  0  0  0  0  0  0  0  0  0  0
    1.9659   -3.1806    0.3923 H   0  0  0  0  0  0  0  0  0  0  0  0
    2.9879   -4.5500    0.0378 H   0  0  0  0  0  0  0  0  0  0  0  0
    6.6078   -2.8374    1.4408 H   0  0  0  0  0  0  0  0  0  0  0  0
    5.0885   -5.1348   -0.7213 H   0  0  0  0  0  0  0  0  0  0  0  0
    6.6972   -4.8375   -0.1286 H   0  0  0  0  0  0  0  0  0  0  0  0
    6.0180   -5.7918    1.8729 H   0  0  0  0  0  0  0  0  0  0  0  0
    4.3666   -5.8404    1.3480 H   0  0  0  0  0  0  0  0  0  0  0  0
  1  2  1  0
  1 24  1  0
  2  7  2  0
  2  3  1  0
  3  4  2  0
  3 25  1  0
  4  5  1  0
  4 26  1  0
  5 23  1  0
  5  6  2  0
  6 19  1  0
  6  7  1  0
  7  8  1  0
  8  9  1  0
  9 19  1  0
  9 10  1  0
  9 27  1  6
 10 11  1  0
 10 28  1  0
 10 29  1  0
 11 20  1  0
 11 12  1  0
 11 30  1  6
 12 13  1  0
 12 17  1  0
 13 14  1  0
 13 31  1  0
 13 32  1  0
 14 16  1  0
 14 15  1  0
 14 33  1  0
 15 16  1  0
 15 34  1  0
 15 35  1  0
 16 36  1  0
 16 37  1  0
 17 18  1  0
 17 38  1  0
 17 39  1  0
 19 18  1  6
 18 40  1  0
 18 41  1  0
 19 20  1  0
 20 21  1  1
 20 22  1  0
 21 42  1  0
 22 23  1  0
 22 43  1  0
 22 44  1  0
 23 45  1  0
 23 46  1  0
M  END
>  <i_m_ct_stereo_status>  (152) 
1

>  <s_m_source_file>  (152) 
/var/tmp/pbs.5076255.sched01/tmpbrsd6n1o/39u_ie0p0h.sdf

>  <i_m_source_file_index>  (152) 
20

>  <i_lp_mmshare_version>  (152) 
48012

>  <i_f3d_flags>  (152) 
0

>  <s_epik_input>  (152) 
W0NAQF0xMjNjNGM1W2NIXVtjSF1jKFtPSF0pYzRPW0NASF0xW0NIMl1bQ0BASF0oW0NAXTMoW09IXSlbQ0gyXVtDSDJdNSlOKFtDSDJdW0NIMl0yKVtDSDJdW0NIXTZbQ0gyXVtDSDJdNg==

>  <s_epik_cmdline>  (152) 
J2VwaWtfcHl0aG9uJywgJy1waHQnLCAnMi4wJywgJy1waCcsICc3LjAnLCAnLXRuJywgJzgnLCAnLW1hJywgJzIwMCcsICctaW1hZScsICc8aW5maWxlLm1hZT4nLCAnLW9tYWUnLCAnPG91dGZpbGUubWFlPic=

>  <r_lp_tautomer_probability>  (152) 
1

>  <r_epik_Ionization_Penalty>  (152) 
2.32052

>  <r_epik_Ionization_Penalty_Charging>  (152) 
0

>  <r_epik_Ionization_Penalty_Neutral>  (152) 
2.32052

>  <r_epik_State_Penalty>  (152) 
2.47187

>  <r_epik_Charging_Adjusted_Penalty>  (152) 
2.47187

>  <i_epik_Tot_Q>  (152) 
0

>  <i_epik_Tot_abs_Q>  (152) 
0

>  <s_lp_Force_Field>  (152) 
OPLS3e

>  <r_lp_Energy>  (152) 
81.874

>  <b_lp_Chiralities_Consistent>  (152) 
1

>  <s_lp_Variant>  (152) 
46:0-2

>  <s_i_glide_gridfile>  (152) 
pfpi4k_grid

>  <i_i_glide_lignum>  (152) 
20

>  <i_i_glide_rotatable_bonds>  (152) 
4

>  <r_i_docking_score>  (152) 
-2.98747

>  <r_i_glide_ligand_efficiency>  (152) 
-0.12989

>  <r_i_glide_ligand_efficiency_sa>  (152) 
-0.36939

>  <r_i_glide_ligand_efficiency_ln>  (152) 
-0.722397

>  <r_i_glide_gscore>  (152) 
-2.98747

>  <r_i_glide_lipo>  (152) 
-1.00958

>  <r_i_glide_hbond>  (152) 
0

>  <r_i_glide_metal>  (152) 
-0

>  <r_i_glide_rewards>  (152) 
-1.314

>  <r_i_glide_evdw>  (152) 
-19.6739

>  <r_i_glide_ecoul>  (152) 
-0.389413

>  <r_i_glide_erotb>  (152) 
0.378224

>  <r_i_glide_esite>  (152) 
0

>  <r_i_glide_emodel>  (152) 
-18.9168

>  <r_i_glide_energy>  (152) 
-20.0633

>  <r_i_glide_einternal>  (152) 
8.97115

>  <r_i_glide_intrahb_reward>  (152) 
-0

>  <i_i_glide_confnum>  (152) 
4

>  <i_i_glide_posenum>  (152) 
2

>  <r_i_glide_eff_state_penalty>  (152) 
0

>  <ligand_id>  (152) 
46

>  <original_smiles>  (152) 
Oc1ccc2c3c1OC1CC4N(CC5CC5)CCC31C4(O)CC2

>  <smiles>  (152) 
[H]Oc1c([H])c([H])c2c3c1OC1([H])C([H])([H])C4([H])N(C([H])([H])C5([H])C([H])([H])C5([H])[H])C([H])([H])C([H])([H])C31C4(O[H])C([H])([H])C2([H])[H]

$$$$
46:1:1
     RDKit          3D

 46 51  0  0  1  0  0  0  0  0999 V2000
   -0.9847   -7.5861    2.0816 O   0  0  0  0  0  0  0  0  0  0  0  0
    0.3223   -7.9316    2.2766 C   0  0  0  0  0  0  0  0  0  0  0  0
    0.6821   -9.0552    3.0655 C   0  0  0  0  0  0  0  0  0  0  0  0
    2.0348   -9.3206    3.4076 C   0  0  0  0  0  0  0  0  0  0  0  0
    3.0565   -8.5049    2.8995 C   0  0  0  0  0  0  0  0  0  0  0  0
    2.6364   -7.5161    2.0014 C   0  0  0  0  0  0  0  0  0  0  0  0
    1.3426   -7.1020    1.7369 C   0  0  0  0  0  0  0  0  0  0  0  0
    1.2357   -5.8778    1.1675 O   0  0  0  0  0  0  0  0  0  0  0  0
    2.5809   -5.4503    0.8778 C   0  0  1  0  0  0  0  0  0  0  0  0
    3.1235   -4.1249    1.4050 C   0  0  0  0  0  0  0  0  0  0  0  0
    4.5090   -4.4635    2.1173 C   0  0  2  0  0  0  0  0  0  0  0  0
    5.7020   -4.6368    1.2460 N   0  0  0  0  0  0  0  0  0  0  0  0
    6.3963   -3.4041    0.8432 C   0  0  0  0  0  0  0  0  0  0  0  0
    5.5176   -2.3204    0.2087 C   0  0  0  0  0  0  0  0  0  0  0  0
    5.7697   -1.8286   -1.1913 C   0  0  0  0  0  0  0  0  0  0  0  0
    6.0033   -0.9252   -0.0132 C   0  0  0  0  0  0  0  0  0  0  0  0
    5.4677   -5.5567    0.1321 C   0  0  0  0  0  0  0  0  0  0  0  0
    4.6419   -6.8174    0.4986 C   0  0  0  0  0  0  0  0  0  0  0  0
    3.5261   -6.4515    1.5282 C   0  0  2  0  0  0  0  0  0  0  0  0
    4.1216   -5.8046    2.7761 C   0  0  2  0  0  0  0  0  0  0  0  0
    3.1610   -5.4789    3.7899 O   0  0  0  0  0  0  0  0  0  0  0  0
    5.0875   -6.8475    3.4297 C   0  0  0  0  0  0  0  0  0  0  0  0
    4.5132   -8.3256    3.3748 C   0  0  0  0  0  0  0  0  0  0  0  0
   -1.5593   -8.2702    2.3845 H   0  0  0  0  0  0  0  0  0  0  0  0
   -0.0909   -9.6680    3.4948 H   0  0  0  0  0  0  0  0  0  0  0  0
    2.2760  -10.0914    4.1349 H   0  0  0  0  0  0  0  0  0  0  0  0
    2.6486   -5.4658   -0.2102 H   0  0  0  0  0  0  0  0  0  0  0  0
    3.1017   -3.5228    0.5091 H   0  0  0  0  0  0  0  0  0  0  0  0
    2.4505   -3.6437    2.1184 H   0  0  0  0  0  0  0  0  0  0  0  0
    4.7568   -3.7322    2.8856 H   0  0  0  0  0  0  0  0  0  0  0  0
    6.9054   -2.9713    1.7105 H   0  0  0  0  0  0  0  0  0  0  0  0
    7.2084   -3.6633    0.1417 H   0  0  0  0  0  0  0  0  0  0  0  0
    4.5349   -2.2185    0.6654 H   0  0  0  0  0  0  0  0  0  0  0  0
    6.6303   -2.2557   -1.7224 H   0  0  0  0  0  0  0  0  0  0  0  0
    4.8657   -1.6900   -1.7861 H   0  0  0  0  0  0  0  0  0  0  0  0
    5.2350   -0.1851    0.2159 H   0  0  0  0  0  0  0  0  0  0  0  0
    7.0063   -0.7045    0.3612 H   0  0  0  0  0  0  0  0  0  0  0  0
    4.9816   -5.0119   -0.6794 H   0  0  0  0  0  0  0  0  0  0  0  0
    6.4331   -5.8603   -0.2735 H   0  0  0  0  0  0  0  0  0  0  0  0
    4.2235   -7.2266   -0.4194 H   0  0  0  0  0  0  0  0  0  0  0  0
    5.3132   -7.5822    0.8826 H   0  0  0  0  0  0  0  0  0  0  0  0
    3.6123   -5.1540    4.5482 H   0  0  0  0  0  0  0  0  0  0  0  0
    6.0617   -6.8282    2.9312 H   0  0  0  0  0  0  0  0  0  0  0  0
    5.2930   -6.5650    4.4658 H   0  0  0  0  0  0  0  0  0  0  0  0
    4.5879   -8.7742    4.3660 H   0  0  0  0  0  0  0  0  0  0  0  0
    5.1506   -8.9332    2.7333 H   0  0  0  0  0  0  0  0  0  0  0  0
  1  2  1  0
  1 24  1  0
  2  7  2  0
  2  3  1  0
  3  4  2  0
  3 25  1  0
  4  5  1  0
  4 26  1  0
  5 23  1  0
  5  6  2  0
  6 19  1  0
  6  7  1  0
  7  8  1  0
  8  9  1  0
  9 19  1  0
  9 10  1  0
  9 27  1  6
 10 11  1  0
 10 28  1  0
 10 29  1  0
 11 20  1  0
 11 12  1  0
 11 30  1  1
 12 13  1  0
 12 17  1  0
 13 14  1  0
 13 31  1  0
 13 32  1  0
 14 16  1  0
 14 15  1  0
 14 33  1  0
 15 16  1  0
 15 34  1  0
 15 35  1  0
 16 36  1  0
 16 37  1  0
 17 18  1  0
 17 38  1  0
 17 39  1  0
 19 18  1  6
 18 40  1  0
 18 41  1  0
 19 20  1  0
 20 21  1  1
 20 22  1  0
 21 42  1  0
 22 23  1  0
 22 43  1  0
 22 44  1  0
 23 45  1  0
 23 46  1  0
M  END
>  <i_m_ct_stereo_status>  (153) 
1

>  <s_m_source_file>  (153) 
/var/tmp/pbs.5076255.sched01/tmpbrsd6n1o/39u_ie0p0h.sdf

>  <i_m_source_file_index>  (153) 
20

>  <i_lp_mmshare_version>  (153) 
48012

>  <i_f3d_flags>  (153) 
0

>  <s_epik_input>  (153) 
W0NAQF0xMjNjNGM1W2NIXVtjSF1jKFtPSF0pYzRPW0NASF0xW0NIMl1bQ0BASF0oW0NAXTMoW09IXSlbQ0gyXVtDSDJdNSlOKFtDSDJdW0NIMl0yKVtDSDJdW0NIXTZbQ0gyXVtDSDJdNg==

>  <s_epik_cmdline>  (153) 
J2VwaWtfcHl0aG9uJywgJy1waHQnLCAnMi4wJywgJy1waCcsICc3LjAnLCAnLXRuJywgJzgnLCAnLW1hJywgJzIwMCcsICctaW1hZScsICc8aW5maWxlLm1hZT4nLCAnLW9tYWUnLCAnPG91dGZpbGUubWFlPic=

>  <r_lp_tautomer_probability>  (153) 
1

>  <r_epik_Ionization_Penalty>  (153) 
2.32052

>  <r_epik_Ionization_Penalty_Charging>  (153) 
0

>  <r_epik_Ionization_Penalty_Neutral>  (153) 
2.32052

>  <r_epik_State_Penalty>  (153) 
2.47187

>  <r_epik_Charging_Adjusted_Penalty>  (153) 
2.47187

>  <i_epik_Tot_Q>  (153) 
0

>  <i_epik_Tot_abs_Q>  (153) 
0

>  <s_lp_Force_Field>  (153) 
OPLS3e

>  <r_lp_Energy>  (153) 
81.874

>  <b_lp_Chiralities_Consistent>  (153) 
1

>  <s_lp_Variant>  (153) 
46:0-2

>  <s_i_glide_gridfile>  (153) 
pfpi4k_grid

>  <i_i_glide_lignum>  (153) 
20

>  <i_i_glide_rotatable_bonds>  (153) 
4

>  <r_i_docking_score>  (153) 
-2.97806

>  <r_i_glide_ligand_efficiency>  (153) 
-0.129481

>  <r_i_glide_ligand_efficiency_sa>  (153) 
-0.368226

>  <r_i_glide_ligand_efficiency_ln>  (153) 
-0.720121

>  <r_i_glide_gscore>  (153) 
-2.97806

>  <r_i_glide_lipo>  (153) 
-0.368272

>  <r_i_glide_hbond>  (153) 
-0.156855

>  <r_i_glide_metal>  (153) 
-0

>  <r_i_glide_rewards>  (153) 
-1.27234

>  <r_i_glide_evdw>  (153) 
-20.1231

>  <r_i_glide_ecoul>  (153) 
-3.68441

>  <r_i_glide_erotb>  (153) 
0.378224

>  <r_i_glide_esite>  (153) 
0

>  <r_i_glide_emodel>  (153) 
-21.9032

>  <r_i_glide_energy>  (153) 
-23.8076

>  <r_i_glide_einternal>  (153) 
9.15735

>  <r_i_glide_intrahb_reward>  (153) 
-0

>  <i_i_glide_confnum>  (153) 
4

>  <i_i_glide_posenum>  (153) 
39

>  <r_i_glide_eff_state_penalty>  (153) 
0

>  <ligand_id>  (153) 
46

>  <original_smiles>  (153) 
Oc1ccc2c3c1OC1CC4N(CC5CC5)CCC31C4(O)CC2

>  <smiles>  (153) 
[H]Oc1c([H])c([H])c2c3c1OC1([H])C([H])([H])C4([H])N(C([H])([H])C5([H])C([H])([H])C5([H])[H])C([H])([H])C([H])([H])C31C4(O[H])C([H])([H])C2([H])[H]

$$$$
46:1:2
     RDKit          3D

 46 51  0  0  1  0  0  0  0  0999 V2000
    0.2349   -7.6467    2.7690 O   0  0  0  0  0  0  0  0  0  0  0  0
    1.5794   -7.4107    2.7661 C   0  0  0  0  0  0  0  0  0  0  0  0
    2.4317   -8.0390    3.7022 C   0  0  0  0  0  0  0  0  0  0  0  0
    3.8091   -7.6873    3.8080 C   0  0  0  0  0  0  0  0  0  0  0  0
    4.3627   -6.7623    2.8983 C   0  0  0  0  0  0  0  0  0  0  0  0
    3.4899   -6.3110    1.9089 C   0  0  0  0  0  0  0  0  0  0  0  0
    2.1186   -6.4987    1.8268 C   0  0  0  0  0  0  0  0  0  0  0  0
    1.4707   -5.6175    1.0034 O   0  0  0  0  0  0  0  0  0  0  0  0
    2.4904   -4.8551    0.3199 C   0  0  1  0  0  0  0  0  0  0  0  0
    2.5433   -3.3154    0.3734 C   0  0  0  0  0  0  0  0  0  0  0  0
    4.0070   -2.9344    0.8524 C   0  0  2  0  0  0  0  0  0  0  0  0
    5.0617   -2.9511   -0.1866 N   0  0  0  0  0  0  0  0  0  0  0  0
    5.1281   -1.7501   -1.0277 C   0  0  0  0  0  0  0  0  0  0  0  0
    3.8285   -1.3266   -1.6887 C   0  0  0  0  0  0  0  0  0  0  0  0
    3.3377   -2.0508   -2.9299 C   0  0  0  0  0  0  0  0  0  0  0  0
    3.7747   -0.6120   -3.0137 C   0  0  0  0  0  0  0  0  0  0  0  0
    5.0960   -4.2044   -0.9551 C   0  0  0  0  0  0  0  0  0  0  0  0
    4.8914   -5.4846   -0.1183 C   0  0  0  0  0  0  0  0  0  0  0  0
    3.8196   -5.2197    0.9816 C   0  0  2  0  0  0  0  0  0  0  0  0
    4.2342   -4.0572    1.8745 C   0  0  2  0  0  0  0  0  0  0  0  0
    3.3395   -3.7794    2.9542 O   0  0  0  0  0  0  0  0  0  0  0  0
    5.5933   -4.4257    2.5312 C   0  0  0  0  0  0  0  0  0  0  0  0
    5.6710   -5.9416    2.9764 C   0  0  0  0  0  0  0  0  0  0  0  0
    0.0033   -8.3734    3.3289 H   0  0  0  0  0  0  0  0  0  0  0  0
    2.0183   -8.7199    4.4284 H   0  0  0  0  0  0  0  0  0  0  0  0
    4.4051   -8.0671    4.6184 H   0  0  0  0  0  0  0  0  0  0  0  0
    2.4535   -5.1678   -0.7110 H   0  0  0  0  0  0  0  0  0  0  0  0
    2.2380   -2.9566   -0.6048 H   0  0  0  0  0  0  0  0  0  0  0  0
    1.8297   -2.9152    1.0923 H   0  0  0  0  0  0  0  0  0  0  0  0
    4.0141   -1.9603    1.3500 H   0  0  0  0  0  0  0  0  0  0  0  0
    5.4839   -0.9099   -0.4268 H   0  0  0  0  0  0  0  0  0  0  0  0
    5.8765   -1.9061   -1.8086 H   0  0  0  0  0  0  0  0  0  0  0  0
    3.0920   -0.9368   -0.9842 H   0  0  0  0  0  0  0  0  0  0  0  0
    3.9953   -2.7960   -3.3824 H   0  0  0  0  0  0  0  0  0  0  0  0
    2.2729   -2.2838   -2.9607 H   0  0  0  0  0  0  0  0  0  0  0  0
    2.9921    0.1290   -3.1451 H   0  0  0  0  0  0  0  0  0  0  0  0
    4.7162   -0.3840   -3.4981 H   0  0  0  0  0  0  0  0  0  0  0  0
    4.3159   -4.1801   -1.7063 H   0  0  0  0  0  0  0  0  0  0  0  0
    6.0373   -4.2702   -1.4946 H   0  0  0  0  0  0  0  0  0  0  0  0
    4.5669   -6.2907   -0.7734 H   0  0  0  0  0  0  0  0  0  0  0  0
    5.8450   -5.8091    0.2914 H   0  0  0  0  0  0  0  0  0  0  0  0
    3.6778   -3.0604    3.4639 H   0  0  0  0  0  0  0  0  0  0  0  0
    6.4216   -4.2180    1.8571 H   0  0  0  0  0  0  0  0  0  0  0  0
    5.7737   -3.7864    3.3932 H   0  0  0  0  0  0  0  0  0  0  0  0
    6.0164   -5.9900    4.0072 H   0  0  0  0  0  0  0  0  0  0  0  0
    6.4242   -6.4618    2.3820 H   0  0  0  0  0  0  0  0  0  0  0  0
  1  2  1  0
  1 24  1  0
  2  7  2  0
  2  3  1  0
  3  4  2  0
  3 25  1  0
  4  5  1  0
  4 26  1  0
  5 23  1  0
  5  6  2  0
  6 19  1  0
  6  7  1  0
  7  8  1  0
  8  9  1  0
  9 19  1  0
  9 10  1  0
  9 27  1  6
 10 11  1  0
 10 28  1  0
 10 29  1  0
 11 20  1  0
 11 12  1  0
 11 30  1  1
 12 13  1  0
 12 17  1  0
 13 14  1  0
 13 31  1  0
 13 32  1  0
 14 16  1  0
 14 15  1  0
 14 33  1  0
 15 16  1  0
 15 34  1  0
 15 35  1  0
 16 36  1  0
 16 37  1  0
 17 18  1  0
 17 38  1  0
 17 39  1  0
 19 18  1  6
 18 40  1  0
 18 41  1  0
 19 20  1  0
 20 21  1  1
 20 22  1  0
 21 42  1  0
 22 23  1  0
 22 43  1  0
 22 44  1  0
 23 45  1  0
 23 46  1  0
M  END
>  <i_m_ct_stereo_status>  (154) 
1

>  <s_m_source_file>  (154) 
/var/tmp/pbs.5076255.sched01/tmpbrsd6n1o/39u_ie0p0h.sdf

>  <i_m_source_file_index>  (154) 
20

>  <i_lp_mmshare_version>  (154) 
48012

>  <i_f3d_flags>  (154) 
0

>  <s_epik_input>  (154) 
W0NAQF0xMjNjNGM1W2NIXVtjSF1jKFtPSF0pYzRPW0NASF0xW0NIMl1bQ0BASF0oW0NAXTMoW09IXSlbQ0gyXVtDSDJdNSlOKFtDSDJdW0NIMl0yKVtDSDJdW0NIXTZbQ0gyXVtDSDJdNg==

>  <s_epik_cmdline>  (154) 
J2VwaWtfcHl0aG9uJywgJy1waHQnLCAnMi4wJywgJy1waCcsICc3LjAnLCAnLXRuJywgJzgnLCAnLW1hJywgJzIwMCcsICctaW1hZScsICc8aW5maWxlLm1hZT4nLCAnLW9tYWUnLCAnPG91dGZpbGUubWFlPic=

>  <r_lp_tautomer_probability>  (154) 
1

>  <r_epik_Ionization_Penalty>  (154) 
2.32052

>  <r_epik_Ionization_Penalty_Charging>  (154) 
0

>  <r_epik_Ionization_Penalty_Neutral>  (154) 
2.32052

>  <r_epik_State_Penalty>  (154) 
2.47187

>  <r_epik_Charging_Adjusted_Penalty>  (154) 
2.47187

>  <i_epik_Tot_Q>  (154) 
0

>  <i_epik_Tot_abs_Q>  (154) 
0

>  <s_lp_Force_Field>  (154) 
OPLS3e

>  <r_lp_Energy>  (154) 
81.874

>  <b_lp_Chiralities_Consistent>  (154) 
1

>  <s_lp_Variant>  (154) 
46:0-2

>  <s_i_glide_gridfile>  (154) 
pfpi4k_grid

>  <i_i_glide_lignum>  (154) 
20

>  <i_i_glide_rotatable_bonds>  (154) 
4

>  <r_i_docking_score>  (154) 
-2.67292

>  <r_i_glide_ligand_efficiency>  (154) 
-0.116214

>  <r_i_glide_ligand_efficiency_sa>  (154) 
-0.330497

>  <r_i_glide_ligand_efficiency_ln>  (154) 
-0.646337

>  <r_i_glide_gscore>  (154) 
-2.67292

>  <r_i_glide_lipo>  (154) 
-0.203279

>  <r_i_glide_hbond>  (154) 
-0.13097

>  <r_i_glide_metal>  (154) 
-0

>  <r_i_glide_rewards>  (154) 
-1.27234

>  <r_i_glide_evdw>  (154) 
-18.6979

>  <r_i_glide_ecoul>  (154) 
-3.39779

>  <r_i_glide_erotb>  (154) 
0.378224

>  <r_i_glide_esite>  (154) 
0

>  <r_i_glide_emodel>  (154) 
-21.453

>  <r_i_glide_energy>  (154) 
-22.0957

>  <r_i_glide_einternal>  (154) 
9.20395

>  <r_i_glide_intrahb_reward>  (154) 
-0

>  <i_i_glide_confnum>  (154) 
4

>  <i_i_glide_posenum>  (154) 
10

>  <r_i_glide_eff_state_penalty>  (154) 
0

>  <ligand_id>  (154) 
46

>  <original_smiles>  (154) 
Oc1ccc2c3c1OC1CC4N(CC5CC5)CCC31C4(O)CC2

>  <smiles>  (154) 
[H]Oc1c([H])c([H])c2c3c1OC1([H])C([H])([H])C4([H])N(C([H])([H])C5([H])C([H])([H])C5([H])[H])C([H])([H])C([H])([H])C31C4(O[H])C([H])([H])C2([H])[H]

$$$$
47:0:0
     RDKit          3D

 39 43  0  0  1  0  0  0  0  0999 V2000
    4.2499   -5.0967    0.3337 C   0  0  0  0  0  0  0  0  0  0  0  0
    4.6303   -3.6194    0.4865 C   0  0  2  0  0  0  0  0  0  0  0  0
    5.8526   -3.3177   -0.2524 N   0  0  0  0  0  0  0  0  0  0  0  0
    6.5335   -2.3570    0.3523 C   0  0  0  0  0  0  0  0  0  0  0  0
    7.5942   -1.8703   -0.0352 O   0  0  0  0  0  0  0  0  0  0  0  0
    5.8047   -1.9235    1.6103 C   0  0  1  0  0  0  0  0  0  0  0  0
    4.8406   -0.9311    1.2343 O   0  0  0  0  0  0  0  0  0  0  0  0
    3.4981   -1.4563    1.0898 C   0  0  2  0  0  0  0  0  0  0  0  0
    3.0326   -1.9712    2.4535 C   0  0  0  0  0  0  0  0  0  0  0  0
    1.8826   -1.5230    3.1212 C   0  0  0  0  0  0  0  0  0  0  0  0
    1.6939   -2.2267    4.3420 C   0  0  0  0  0  0  0  0  0  0  0  0
    2.5641   -3.2583    4.8107 C   0  0  0  0  0  0  0  0  0  0  0  0
    3.7189   -3.6983    4.1118 C   0  0  0  0  0  0  0  0  0  0  0  0
    3.8856   -2.9884    2.9094 C   0  0  0  0  0  0  0  0  0  0  0  0
    5.0517   -3.2320    1.9397 C   0  0  1  0  0  0  0  0  0  0  0  0
    3.4748   -2.6561    0.0787 C   0  0  1  0  0  0  0  0  0  0  0  0
    3.4948   -2.2266   -1.3941 C   0  0  0  0  0  0  0  0  0  0  0  0
    4.1449   -1.0541   -1.8334 C   0  0  0  0  0  0  0  0  0  0  0  0
    4.1051   -0.6697   -3.1843 C   0  0  0  0  0  0  0  0  0  0  0  0
    3.4274   -1.4661   -4.1265 C   0  0  0  0  0  0  0  0  0  0  0  0
    2.7794   -2.6476   -3.7035 C   0  0  0  0  0  0  0  0  0  0  0  0
    2.8085   -3.0192   -2.3439 C   0  0  0  0  0  0  0  0  0  0  0  0
    3.3356   -5.3233    0.8858 H   0  0  0  0  0  0  0  0  0  0  0  0
    5.0359   -5.7579    0.6995 H   0  0  0  0  0  0  0  0  0  0  0  0
    4.0727   -5.3364   -0.7159 H   0  0  0  0  0  0  0  0  0  0  0  0
    6.1409   -3.8044   -1.0908 H   0  0  0  0  0  0  0  0  0  0  0  0
    6.4673   -1.5751    2.4030 H   0  0  0  0  0  0  0  0  0  0  0  0
    2.8316   -0.6579    0.7727 H   0  0  0  0  0  0  0  0  0  0  0  0
    1.2237   -0.7435    2.7545 H   0  0  0  0  0  0  0  0  0  0  0  0
    0.8411   -1.9656    4.9589 H   0  0  0  0  0  0  0  0  0  0  0  0
    2.3351   -3.7310    5.7598 H   0  0  0  0  0  0  0  0  0  0  0  0
    4.3830   -4.4818    4.4605 H   0  0  0  0  0  0  0  0  0  0  0  0
    5.7322   -3.9684    2.3548 H   0  0  0  0  0  0  0  0  0  0  0  0
    2.5105   -3.1446    0.2315 H   0  0  0  0  0  0  0  0  0  0  0  0
    4.6481   -0.4042   -1.1362 H   0  0  0  0  0  0  0  0  0  0  0  0
    4.5770    0.2523   -3.4865 H   0  0  0  0  0  0  0  0  0  0  0  0
    3.3921   -1.1553   -5.1615 H   0  0  0  0  0  0  0  0  0  0  0  0
    2.2339   -3.2539   -4.4225 H   0  0  0  0  0  0  0  0  0  0  0  0
    2.2677   -3.9069   -2.0343 H   0  0  0  0  0  0  0  0  0  0  0  0
  2  1  1  1
  1 23  1  0
  1 24  1  0
  1 25  1  0
  2 15  1  0
  2 16  1  0
  2  3  1  0
  3  4  1  0
  3 26  1  0
  4  5  2  0
  4  6  1  0
  6 15  1  0
  6  7  1  0
  6 27  1  1
  7  8  1  0
  8  9  1  0
  8 16  1  0
  8 28  1  6
  9 14  2  0
  9 10  1  0
 10 11  2  0
 10 29  1  0
 11 12  1  0
 11 30  1  0
 12 13  2  0
 12 31  1  0
 13 14  1  0
 13 32  1  0
 14 15  1  0
 15 33  1  1
 16 17  1  0
 16 34  1  6
 17 22  1  0
 17 18  2  0
 18 19  1  0
 18 35  1  0
 19 20  2  0
 19 36  1  0
 20 21  1  0
 20 37  1  0
 21 22  2  0
 21 38  1  0
 22 39  1  0
M  END
>  <i_m_ct_stereo_status>  (155) 
1

>  <s_m_source_file>  (155) 
/var/tmp/pbs.5076255.sched01/tmpbrsd6n1o/39u_ie0p0h.sdf

>  <i_m_source_file_index>  (155) 
21

>  <i_lp_mmshare_version>  (155) 
48012

>  <i_f3d_flags>  (155) 
0

>  <s_epik_input>  (155) 
W2NIXTFbY0hdW2NIXVtjSF1jMmMxW0NAQEhdKE9bQ0BIXShDKD1PKVtOSF0zKVtDQEBIXTJbQ0BdMzRbQ0gzXSlbQ0BIXTRjNVtjSF1bY0hdW2NIXVtjSF1bY0hdNQ==

>  <s_epik_cmdline>  (155) 
J2VwaWtfcHl0aG9uJywgJy1waHQnLCAnMi4wJywgJy1waCcsICc3LjAnLCAnLXRuJywgJzgnLCAnLW1hJywgJzIwMCcsICctaW1hZScsICc8aW5maWxlLm1hZT4nLCAnLW9tYWUnLCAnPG91dGZpbGUubWFlPic=

>  <r_lp_tautomer_probability>  (155) 
1

>  <r_epik_Ionization_Penalty>  (155) 
1.16802e-07

>  <r_epik_Ionization_Penalty_Charging>  (155) 
0

>  <r_epik_Ionization_Penalty_Neutral>  (155) 
1.16802e-07

>  <r_epik_State_Penalty>  (155) 
-0

>  <r_epik_Charging_Adjusted_Penalty>  (155) 
0

>  <i_epik_Tot_Q>  (155) 
0

>  <i_epik_Tot_abs_Q>  (155) 
0

>  <s_lp_Force_Field>  (155) 
OPLS3e

>  <r_lp_Energy>  (155) 
47.5239

>  <b_lp_Chiralities_Consistent>  (155) 
1

>  <s_lp_Variant>  (155) 
47:0-1

>  <s_i_glide_gridfile>  (155) 
pfpi4k_grid

>  <i_i_glide_lignum>  (155) 
21

>  <i_i_glide_rotatable_bonds>  (155) 
1

>  <r_i_docking_score>  (155) 
-3.78966

>  <r_i_glide_ligand_efficiency>  (155) 
-0.172257

>  <r_i_glide_ligand_efficiency_sa>  (155) 
-0.482672

>  <r_i_glide_ligand_efficiency_ln>  (155) 
-0.926332

>  <r_i_glide_gscore>  (155) 
-3.78966

>  <r_i_glide_lipo>  (155) 
-0.652787

>  <r_i_glide_hbond>  (155) 
-0.117354

>  <r_i_glide_metal>  (155) 
-0

>  <r_i_glide_rewards>  (155) 
-1.53695

>  <r_i_glide_evdw>  (155) 
-27.302

>  <r_i_glide_ecoul>  (155) 
-2.21571

>  <r_i_glide_erotb>  (155) 
0.214883

>  <r_i_glide_esite>  (155) 
0

>  <r_i_glide_emodel>  (155) 
-36.3854

>  <r_i_glide_energy>  (155) 
-29.5177

>  <r_i_glide_einternal>  (155) 
0.285331

>  <r_i_glide_intrahb_reward>  (155) 
-0

>  <i_i_glide_confnum>  (155) 
6

>  <i_i_glide_posenum>  (155) 
1

>  <r_i_glide_eff_state_penalty>  (155) 
0

>  <ligand_id>  (155) 
47

>  <original_smiles>  (155) 
CC12NC(=O)C3OC(c4ccccc4C31)C2c1ccccc1

>  <smiles>  (155) 
[H]c1c([H])c([H])c(C2([H])C3([H])OC4([H])C(=O)N([H])C2(C([H])([H])[H])C4([H])c2c([H])c([H])c([H])c([H])c23)c([H])c1[H]

$$$$
47:0:1
     RDKit          3D

 39 43  0  0  1  0  0  0  0  0999 V2000
    4.6081   -0.4575    1.0536 C   0  0  0  0  0  0  0  0  0  0  0  0
    5.1596   -1.7633    0.4677 C   0  0  2  0  0  0  0  0  0  0  0  0
    6.4335   -2.1132    1.0892 N   0  0  0  0  0  0  0  0  0  0  0  0
    7.2197   -2.7588    0.2335 C   0  0  0  0  0  0  0  0  0  0  0  0
    8.3497   -3.1824    0.4568 O   0  0  0  0  0  0  0  0  0  0  0  0
    6.5045   -2.8760   -1.0991 C   0  0  1  0  0  0  0  0  0  0  0  0
    5.6731   -4.0470   -1.0457 O   0  0  0  0  0  0  0  0  0  0  0  0
    4.2842   -3.7672   -0.7702 C   0  0  2  0  0  0  0  0  0  0  0  0
    3.7364   -2.9217   -1.9147 C   0  0  0  0  0  0  0  0  0  0  0  0
    2.6330   -3.2689   -2.7003 C   0  0  0  0  0  0  0  0  0  0  0  0
    2.3427   -2.2857   -3.6738 C   0  0  0  0  0  0  0  0  0  0  0  0
    3.0626   -1.0657   -3.8068 C   0  0  0  0  0  0  0  0  0  0  0  0
    4.1580   -0.7184   -2.9781 C   0  0  0  0  0  0  0  0  0  0  0  0
    4.4493   -1.7191   -2.0379 C   0  0  0  0  0  0  0  0  0  0  0  0
    5.5897   -1.6344   -1.0214 C   0  0  1  0  0  0  0  0  0  0  0  0
    4.1382   -2.9450    0.5528 C   0  0  1  0  0  0  0  0  0  0  0  0
    4.2346   -3.7964    1.8257 C   0  0  0  0  0  0  0  0  0  0  0  0
    5.0461   -4.9526    1.9029 C   0  0  0  0  0  0  0  0  0  0  0  0
    5.1055   -5.7106    3.0861 C   0  0  0  0  0  0  0  0  0  0  0  0
    4.3500   -5.3276    4.2108 C   0  0  0  0  0  0  0  0  0  0  0  0
    3.5320   -4.1808    4.1448 C   0  0  0  0  0  0  0  0  0  0  0  0
    3.4761   -3.4209    2.9584 C   0  0  0  0  0  0  0  0  0  0  0  0
    3.6606   -0.1891    0.5830 H   0  0  0  0  0  0  0  0  0  0  0  0
    5.2986    0.3720    0.9009 H   0  0  0  0  0  0  0  0  0  0  0  0
    4.4291   -0.5581    2.1241 H   0  0  0  0  0  0  0  0  0  0  0  0
    6.6898   -1.8655    2.0338 H   0  0  0  0  0  0  0  0  0  0  0  0
    7.1820   -2.8885   -1.9543 H   0  0  0  0  0  0  0  0  0  0  0  0
    3.7289   -4.7010   -0.7200 H   0  0  0  0  0  0  0  0  0  0  0  0
    2.0544   -4.1777   -2.5938 H   0  0  0  0  0  0  0  0  0  0  0  0
    1.4891   -2.4596   -4.3182 H   0  0  0  0  0  0  0  0  0  0  0  0
    2.7364   -0.3578   -4.5572 H   0  0  0  0  0  0  0  0  0  0  0  0
    4.6761    0.2276   -3.0516 H   0  0  0  0  0  0  0  0  0  0  0  0
    6.1504   -0.7216   -1.1757 H   0  0  0  0  0  0  0  0  0  0  0  0
    3.1224   -2.5418    0.5410 H   0  0  0  0  0  0  0  0  0  0  0  0
    5.6344   -5.2727    1.0590 H   0  0  0  0  0  0  0  0  0  0  0  0
    5.7307   -6.5909    3.1245 H   0  0  0  0  0  0  0  0  0  0  0  0
    4.3977   -5.9117    5.1199 H   0  0  0  0  0  0  0  0  0  0  0  0
    2.9454   -3.8905    5.0105 H   0  0  0  0  0  0  0  0  0  0  0  0
    2.8371   -2.5468    2.9238 H   0  0  0  0  0  0  0  0  0  0  0  0
  2  1  1  1
  1 23  1  0
  1 24  1  0
  1 25  1  0
  2 15  1  0
  2 16  1  0
  2  3  1  0
  3  4  1  0
  3 26  1  0
  4  5  2  0
  4  6  1  0
  6 15  1  0
  6  7  1  0
  6 27  1  6
  7  8  1  0
  8  9  1  0
  8 16  1  0
  8 28  1  1
  9 14  2  0
  9 10  1  0
 10 11  2  0
 10 29  1  0
 11 12  1  0
 11 30  1  0
 12 13  2  0
 12 31  1  0
 13 14  1  0
 13 32  1  0
 14 15  1  0
 15 33  1  1
 16 17  1  0
 16 34  1  6
 17 22  1  0
 17 18  2  0
 18 19  1  0
 18 35  1  0
 19 20  2  0
 19 36  1  0
 20 21  1  0
 20 37  1  0
 21 22  2  0
 21 38  1  0
 22 39  1  0
M  END
>  <i_m_ct_stereo_status>  (156) 
1

>  <s_m_source_file>  (156) 
/var/tmp/pbs.5076255.sched01/tmpbrsd6n1o/39u_ie0p0h.sdf

>  <i_m_source_file_index>  (156) 
21

>  <i_lp_mmshare_version>  (156) 
48012

>  <i_f3d_flags>  (156) 
0

>  <s_epik_input>  (156) 
W2NIXTFbY0hdW2NIXVtjSF1jMmMxW0NAQEhdKE9bQ0BIXShDKD1PKVtOSF0zKVtDQEBIXTJbQ0BdMzRbQ0gzXSlbQ0BIXTRjNVtjSF1bY0hdW2NIXVtjSF1bY0hdNQ==

>  <s_epik_cmdline>  (156) 
J2VwaWtfcHl0aG9uJywgJy1waHQnLCAnMi4wJywgJy1waCcsICc3LjAnLCAnLXRuJywgJzgnLCAnLW1hJywgJzIwMCcsICctaW1hZScsICc8aW5maWxlLm1hZT4nLCAnLW9tYWUnLCAnPG91dGZpbGUubWFlPic=

>  <r_lp_tautomer_probability>  (156) 
1

>  <r_epik_Ionization_Penalty>  (156) 
1.16802e-07

>  <r_epik_Ionization_Penalty_Charging>  (156) 
0

>  <r_epik_Ionization_Penalty_Neutral>  (156) 
1.16802e-07

>  <r_epik_State_Penalty>  (156) 
-0

>  <r_epik_Charging_Adjusted_Penalty>  (156) 
0

>  <i_epik_Tot_Q>  (156) 
0

>  <i_epik_Tot_abs_Q>  (156) 
0

>  <s_lp_Force_Field>  (156) 
OPLS3e

>  <r_lp_Energy>  (156) 
47.5239

>  <b_lp_Chiralities_Consistent>  (156) 
1

>  <s_lp_Variant>  (156) 
47:0-1

>  <s_i_glide_gridfile>  (156) 
pfpi4k_grid

>  <i_i_glide_lignum>  (156) 
21

>  <i_i_glide_rotatable_bonds>  (156) 
1

>  <r_i_docking_score>  (156) 
-3.7382

>  <r_i_glide_ligand_efficiency>  (156) 
-0.169918

>  <r_i_glide_ligand_efficiency_sa>  (156) 
-0.476118

>  <r_i_glide_ligand_efficiency_ln>  (156) 
-0.913754

>  <r_i_glide_gscore>  (156) 
-3.7382

>  <r_i_glide_lipo>  (156) 
-0.89318

>  <r_i_glide_hbond>  (156) 
0

>  <r_i_glide_metal>  (156) 
-0

>  <r_i_glide_rewards>  (156) 
-1.58582

>  <r_i_glide_evdw>  (156) 
-25.2949

>  <r_i_glide_ecoul>  (156) 
-1.39563

>  <r_i_glide_erotb>  (156) 
0.214883

>  <r_i_glide_esite>  (156) 
0

>  <r_i_glide_emodel>  (156) 
-33.4669

>  <r_i_glide_energy>  (156) 
-26.6905

>  <r_i_glide_einternal>  (156) 
0.281683

>  <r_i_glide_intrahb_reward>  (156) 
-0

>  <i_i_glide_confnum>  (156) 
6

>  <i_i_glide_posenum>  (156) 
15

>  <r_i_glide_eff_state_penalty>  (156) 
0

>  <ligand_id>  (156) 
47

>  <original_smiles>  (156) 
CC12NC(=O)C3OC(c4ccccc4C31)C2c1ccccc1

>  <smiles>  (156) 
[H]c1c([H])c([H])c(C2([H])C3([H])OC4([H])C(=O)N([H])C2(C([H])([H])[H])C4([H])c2c([H])c([H])c([H])c([H])c23)c([H])c1[H]

$$$$
47:0:2
     RDKit          3D

 39 43  0  0  1  0  0  0  0  0999 V2000
    4.2557   -4.7025    0.3107 C   0  0  0  0  0  0  0  0  0  0  0  0
    4.9145   -3.3137    0.2399 C   0  0  2  0  0  0  0  0  0  0  0  0
    6.0535   -3.3349   -0.6699 N   0  0  0  0  0  0  0  0  0  0  0  0
    6.9856   -2.4822   -0.2655 C   0  0  0  0  0  0  0  0  0  0  0  0
    8.0517   -2.2631   -0.8247 O   0  0  0  0  0  0  0  0  0  0  0  0
    6.5302   -1.7993    1.0053 C   0  0  1  0  0  0  0  0  0  0  0  0
    5.7347   -0.6661    0.6367 O   0  0  0  0  0  0  0  0  0  0  0  0
    4.3175   -0.9156    0.7375 C   0  0  2  0  0  0  0  0  0  0  0  0
    3.9743   -1.2134    2.1926 C   0  0  0  0  0  0  0  0  0  0  0  0
    3.0401   -0.4889    2.9433 C   0  0  0  0  0  0  0  0  0  0  0  0
    2.8863   -1.0381    4.2444 C   0  0  0  0  0  0  0  0  0  0  0  0
    3.5950   -2.1869    4.7110 C   0  0  0  0  0  0  0  0  0  0  0  0
    4.5343   -2.9073    3.9267 C   0  0  0  0  0  0  0  0  0  0  0  0
    4.6708   -2.3463    2.6501 C   0  0  0  0  0  0  0  0  0  0  0  0
    5.6110   -2.9014    1.5759 C   0  0  1  0  0  0  0  0  0  0  0  0
    3.9242   -2.1600   -0.1357 C   0  0  1  0  0  0  0  0  0  0  0  0
    3.8228   -1.8871   -1.6399 C   0  0  0  0  0  0  0  0  0  0  0  0
    3.2396   -2.8783   -2.4638 C   0  0  0  0  0  0  0  0  0  0  0  0
    3.1006   -2.6670   -3.8456 C   0  0  0  0  0  0  0  0  0  0  0  0
    3.5178   -1.4518   -4.4060 C   0  0  0  0  0  0  0  0  0  0  0  0
    4.0507   -0.4400   -3.5961 C   0  0  0  0  0  0  0  0  0  0  0  0
    4.2252   -0.6691   -2.2246 C   0  0  0  0  0  0  0  0  0  0  0  0
    3.3930   -4.6813    0.9800 H   0  0  0  0  0  0  0  0  0  0  0  0
    4.9525   -5.4667    0.6618 H   0  0  0  0  0  0  0  0  0  0  0  0
    3.9110   -5.0328   -0.6676 H   0  0  0  0  0  0  0  0  0  0  0  0
    6.1226   -3.9204   -1.4903 H   0  0  0  0  0  0  0  0  0  0  0  0
    7.3437   -1.4976    1.6676 H   0  0  0  0  0  0  0  0  0  0  0  0
    3.7706   -0.0192    0.4506 H   0  0  0  0  0  0  0  0  0  0  0  0
    2.4927    0.3704    2.5784 H   0  0  0  0  0  0  0  0  0  0  0  0
    2.1903   -0.5632    4.9269 H   0  0  0  0  0  0  0  0  0  0  0  0
    3.4094   -2.5236    5.7248 H   0  0  0  0  0  0  0  0  0  0  0  0
    5.0718   -3.7807    4.2751 H   0  0  0  0  0  0  0  0  0  0  0  0
    6.1964   -3.7263    1.9870 H   0  0  0  0  0  0  0  0  0  0  0  0
    2.9160   -2.4315    0.1735 H   0  0  0  0  0  0  0  0  0  0  0  0
    2.8545   -3.7971   -2.0516 H   0  0  0  0  0  0  0  0  0  0  0  0
    2.6457   -3.4412   -4.4538 H   0  0  0  0  0  0  0  0  0  0  0  0
    3.4249   -1.2536   -5.4622 H   0  0  0  0  0  0  0  0  0  0  0  0
    4.3069    0.5055   -4.0425 H   0  0  0  0  0  0  0  0  0  0  0  0
    4.6377    0.1369   -1.6359 H   0  0  0  0  0  0  0  0  0  0  0  0
  2  1  1  1
  1 23  1  0
  1 24  1  0
  1 25  1  0
  2 15  1  0
  2 16  1  0
  2  3  1  0
  3  4  1  0
  3 26  1  0
  4  5  2  0
  4  6  1  0
  6 15  1  0
  6  7  1  0
  6 27  1  1
  7  8  1  0
  8  9  1  0
  8 16  1  0
  8 28  1  6
  9 14  2  0
  9 10  1  0
 10 11  2  0
 10 29  1  0
 11 12  1  0
 11 30  1  0
 12 13  2  0
 12 31  1  0
 13 14  1  0
 13 32  1  0
 14 15  1  0
 15 33  1  1
 16 17  1  0
 16 34  1  1
 17 22  1  0
 17 18  2  0
 18 19  1  0
 18 35  1  0
 19 20  2  0
 19 36  1  0
 20 21  1  0
 20 37  1  0
 21 22  2  0
 21 38  1  0
 22 39  1  0
M  END
>  <i_m_ct_stereo_status>  (157) 
1

>  <s_m_source_file>  (157) 
/var/tmp/pbs.5076255.sched01/tmpbrsd6n1o/39u_ie0p0h.sdf

>  <i_m_source_file_index>  (157) 
21

>  <i_lp_mmshare_version>  (157) 
48012

>  <i_f3d_flags>  (157) 
0

>  <s_epik_input>  (157) 
W2NIXTFbY0hdW2NIXVtjSF1jMmMxW0NAQEhdKE9bQ0BIXShDKD1PKVtOSF0zKVtDQEBIXTJbQ0BdMzRbQ0gzXSlbQ0BIXTRjNVtjSF1bY0hdW2NIXVtjSF1bY0hdNQ==

>  <s_epik_cmdline>  (157) 
J2VwaWtfcHl0aG9uJywgJy1waHQnLCAnMi4wJywgJy1waCcsICc3LjAnLCAnLXRuJywgJzgnLCAnLW1hJywgJzIwMCcsICctaW1hZScsICc8aW5maWxlLm1hZT4nLCAnLW9tYWUnLCAnPG91dGZpbGUubWFlPic=

>  <r_lp_tautomer_probability>  (157) 
1

>  <r_epik_Ionization_Penalty>  (157) 
1.16802e-07

>  <r_epik_Ionization_Penalty_Charging>  (157) 
0

>  <r_epik_Ionization_Penalty_Neutral>  (157) 
1.16802e-07

>  <r_epik_State_Penalty>  (157) 
-0

>  <r_epik_Charging_Adjusted_Penalty>  (157) 
0

>  <i_epik_Tot_Q>  (157) 
0

>  <i_epik_Tot_abs_Q>  (157) 
0

>  <s_lp_Force_Field>  (157) 
OPLS3e

>  <r_lp_Energy>  (157) 
47.5239

>  <b_lp_Chiralities_Consistent>  (157) 
1

>  <s_lp_Variant>  (157) 
47:0-1

>  <s_i_glide_gridfile>  (157) 
pfpi4k_grid

>  <i_i_glide_lignum>  (157) 
21

>  <i_i_glide_rotatable_bonds>  (157) 
1

>  <r_i_docking_score>  (157) 
-3.69638

>  <r_i_glide_ligand_efficiency>  (157) 
-0.168017

>  <r_i_glide_ligand_efficiency_sa>  (157) 
-0.470791

>  <r_i_glide_ligand_efficiency_ln>  (157) 
-0.90353

>  <r_i_glide_gscore>  (157) 
-3.69638

>  <r_i_glide_lipo>  (157) 
-0.698546

>  <r_i_glide_hbond>  (157) 
-0.16

>  <r_i_glide_metal>  (157) 
-0

>  <r_i_glide_rewards>  (157) 
-1.42266

>  <r_i_glide_evdw>  (157) 
-26.0849

>  <r_i_glide_ecoul>  (157) 
-2.11178

>  <r_i_glide_erotb>  (157) 
0.214883

>  <r_i_glide_esite>  (157) 
-0.0090472

>  <r_i_glide_emodel>  (157) 
-34.6917

>  <r_i_glide_energy>  (157) 
-28.1967

>  <r_i_glide_einternal>  (157) 
0.360203

>  <r_i_glide_intrahb_reward>  (157) 
-0

>  <i_i_glide_confnum>  (157) 
4

>  <i_i_glide_posenum>  (157) 
38

>  <r_i_glide_eff_state_penalty>  (157) 
0

>  <ligand_id>  (157) 
47

>  <original_smiles>  (157) 
CC12NC(=O)C3OC(c4ccccc4C31)C2c1ccccc1

>  <smiles>  (157) 
[H]c1c([H])c([H])c(C2([H])C3([H])OC4([H])C(=O)N([H])C2(C([H])([H])[H])C4([H])c2c([H])c([H])c([H])c([H])c23)c([H])c1[H]

$$$$
48:0:0
     RDKit          3D

 63 68  0  0  1  0  0  0  0  0999 V2000
    7.1568   -3.1537   -1.7553 C   0  0  0  0  0  0  0  0  0  0  0  0
    5.6202   -3.2473   -1.4715 C   0  0  2  0  0  0  0  0  0  0  0  0
    5.0562   -3.8076   -2.8450 C   0  0  0  0  0  0  0  0  0  0  0  0
    3.7441   -3.2935   -3.3854 C   0  0  1  0  0  0  0  0  0  0  0  0
    2.6767   -3.0463   -2.4760 O   0  0  0  0  0  0  0  0  0  0  0  0
    3.3251   -1.9119   -3.0758 C   0  0  1  0  0  0  0  0  0  0  0  0
    4.3096   -1.1021   -2.2866 C   0  0  0  0  0  0  0  0  0  0  0  0
    4.9554   -1.8225   -1.0425 C   0  0  1  0  0  0  0  0  0  0  0  0
    4.5496   -1.2518    0.5151 C   0  0  2  0  0  0  0  0  0  0  0  0
    3.0170   -1.6935    0.2094 C   0  0  0  0  0  0  0  0  0  0  0  0
    3.8362   -1.4353    1.9951 C   0  0  0  0  0  0  0  0  0  0  0  0
    3.3072   -0.3918    2.3979 O   0  0  0  0  0  0  0  0  0  0  0  0
    3.9255   -2.5267    3.0902 C   0  0  0  0  0  0  0  0  0  0  0  0
    4.2593   -3.8493    3.0707 C   0  0  0  0  0  0  0  0  0  0  0  0
    4.4436   -4.5385    1.7651 C   0  0  1  0  0  0  0  0  0  0  0  0
    3.0968   -4.3736    1.2802 O   0  0  0  0  0  0  0  0  0  0  0  0
    5.7644   -3.9749    1.0981 C   0  0  1  0  0  0  0  0  0  0  0  0
    6.2377   -2.7618    1.6708 O   0  0  0  0  0  0  0  0  0  0  0  0
    5.9502   -1.4567    1.2904 C   0  0  0  0  0  0  0  0  0  0  0  0
    7.2009   -0.9547    0.5053 C   0  0  0  0  0  0  0  0  0  0  0  0
    6.2250   -0.6263    2.6228 C   0  0  0  0  0  0  0  0  0  0  0  0
    7.1071   -4.7844    1.3775 C   0  0  0  0  0  0  0  0  0  0  0  0
    8.2139   -4.2639    1.2118 O   0  0  0  0  0  0  0  0  0  0  0  0
    7.0211   -6.0598    1.7626 O   0  0  0  0  0  0  0  0  0  0  0  0
    5.8159   -6.7313    2.0652 C   0  0  0  0  0  0  0  0  0  0  0  0
    6.0491   -8.1879    1.6074 C   0  0  0  0  0  0  0  0  0  0  0  0
    5.6734   -6.7577    3.6114 C   0  0  0  0  0  0  0  0  0  0  0  0
    4.6427   -6.0259    1.3272 C   0  0  1  0  0  0  0  0  0  0  0  0
    3.5027   -6.8678    1.4560 O   0  0  0  0  0  0  0  0  0  0  0  0
    5.0031   -5.7504   -0.2141 C   0  0  0  0  0  0  0  0  0  0  0  0
    5.2861   -4.2180   -0.3238 C   0  0  2  0  0  0  0  0  0  0  0  0
    7.5724   -3.8295   -2.4705 H   0  0  0  0  0  0  0  0  0  0  0  0
    7.7576   -3.3157   -0.8649 H   0  0  0  0  0  0  0  0  0  0  0  0
    7.4067   -2.2230   -2.2739 H   0  0  0  0  0  0  0  0  0  0  0  0
    5.7758   -3.5933   -3.6337 H   0  0  0  0  0  0  0  0  0  0  0  0
    4.9768   -4.8928   -2.8179 H   0  0  0  0  0  0  0  0  0  0  0  0
    3.4085   -3.7188   -4.3274 H   0  0  0  0  0  0  0  0  0  0  0  0
    2.7530   -1.3899   -3.8424 H   0  0  0  0  0  0  0  0  0  0  0  0
    5.0894   -0.8601   -3.0118 H   0  0  0  0  0  0  0  0  0  0  0  0
    3.8804   -0.1422   -2.0438 H   0  0  0  0  0  0  0  0  0  0  0  0
    5.7941   -1.1869   -1.2491 H   0  0  0  0  0  0  0  0  0  0  0  0
    2.7012   -0.8774   -0.4415 H   0  0  0  0  0  0  0  0  0  0  0  0
    2.0577   -1.7195    0.8044 H   0  0  0  0  0  0  0  0  0  0  0  0
    2.8962   -2.5952   -0.3379 H   0  0  0  0  0  0  0  0  0  0  0  0
    3.7529   -2.1358    4.0865 H   0  0  0  0  0  0  0  0  0  0  0  0
    4.2565   -4.4309    3.9761 H   0  0  0  0  0  0  0  0  0  0  0  0
    2.9536   -3.4547    1.1292 H   0  0  0  0  0  0  0  0  0  0  0  0
    6.9776    0.0553    0.1384 H   0  0  0  0  0  0  0  0  0  0  0  0
    7.5947   -1.4615   -0.3161 H   0  0  0  0  0  0  0  0  0  0  0  0
    8.1207   -0.9260    1.0820 H   0  0  0  0  0  0  0  0  0  0  0  0
    5.9815    0.4267    2.4902 H   0  0  0  0  0  0  0  0  0  0  0  0
    7.2782   -0.6395    2.8897 H   0  0  0  0  0  0  0  0  0  0  0  0
    5.7685   -0.9397    3.5535 H   0  0  0  0  0  0  0  0  0  0  0  0
    5.2403   -8.8683    1.8365 H   0  0  0  0  0  0  0  0  0  0  0  0
    6.9539   -8.5891    2.0565 H   0  0  0  0  0  0  0  0  0  0  0  0
    6.2090   -8.2506    0.5141 H   0  0  0  0  0  0  0  0  0  0  0  0
    4.6714   -7.0459    3.9179 H   0  0  0  0  0  0  0  0  0  0  0  0
    5.9082   -5.7880    4.0422 H   0  0  0  0  0  0  0  0  0  0  0  0
    6.3749   -7.4615    4.0529 H   0  0  0  0  0  0  0  0  0  0  0  0
    3.7508   -7.7264    1.1575 H   0  0  0  0  0  0  0  0  0  0  0  0
    5.9047   -6.2596   -0.5313 H   0  0  0  0  0  0  0  0  0  0  0  0
    4.1822   -6.0510   -0.8371 H   0  0  0  0  0  0  0  0  0  0  0  0
    4.2655   -3.9661   -0.5226 H   0  0  0  0  0  0  0  0  0  0  0  0
  2  1  1  6
  1 32  1  0
  1 33  1  0
  1 34  1  0
  2  8  1  0
  2 31  1  0
  2  3  1  0
  3  4  1  0
  3 35  1  0
  3 36  1  0
  4  6  1  0
  4  5  1  0
  4 37  1  6
  5  6  1  0
  6  7  1  0
  6 38  1  6
  7  8  1  0
  7 39  1  0
  7 40  1  0
  8  9  1  0
  8 41  1  6
  9 19  1  0
  9 10  1  1
  9 11  1  0
 10 42  1  0
 10 43  1  0
 10 44  1  0
 11 12  2  0
 11 13  1  0
 13 14  2  3
 13 45  1  0
 14 15  1  0
 14 46  1  0
 15 28  1  0
 15 16  1  6
 15 17  1  0
 16 47  1  0
 17 31  1  0
 17 18  1  0
 17 22  1  1
 18 19  1  0
 19 20  1  0
 19 21  1  0
 20 48  1  0
 20 49  1  0
 20 50  1  0
 21 51  1  0
 21 52  1  0
 21 53  1  0
 22 23  2  0
 22 24  1  0
 24 25  1  0
 25 26  1  0
 25 27  1  0
 25 28  1  0
 26 54  1  0
 26 55  1  0
 26 56  1  0
 27 57  1  0
 27 58  1  0
 27 59  1  0
 28 29  1  6
 28 30  1  0
 29 60  1  0
 30 31  1  0
 30 61  1  0
 30 62  1  0
 31 63  1  1
M  END
>  <i_m_ct_stereo_status>  (158) 
1

>  <s_m_source_file>  (158) 
/var/tmp/pbs.5076255.sched01/tmpbrsd6n1o/39u_ie0p0h.sdf

>  <i_m_source_file_index>  (158) 
22

>  <i_lp_mmshare_version>  (158) 
48012

>  <i_f3d_flags>  (158) 
0

>  <s_epik_input>  (158) 
W0NIMl0xW0NAQEhdKE8yKVtDQEBIXTJbQ0gyXVtDQEBIXShbQ0BAXShbQ0gzXSkoQyhPMykoW0NIM10pW0NIM10pQyg9TykvW0NIXT1bQ0hdXDQpW0NAQF0xKFtDSDNdKVtDQEhdNVtDSDJdW0NAXShbT0hdKShbQ0BAXTQoW0NAXTM1NilbT0hdKUMoW0NIM10pKFtDSDNdKU9DNj1P

>  <s_epik_cmdline>  (158) 
J2VwaWtfcHl0aG9uJywgJy1waHQnLCAnMi4wJywgJy1waCcsICc3LjAnLCAnLXRuJywgJzgnLCAnLW1hJywgJzIwMCcsICctaW1hZScsICc8aW5maWxlLm1hZT4nLCAnLW9tYWUnLCAnPG91dGZpbGUubWFlPic=

>  <r_lp_tautomer_probability>  (158) 
1

>  <r_epik_Ionization_Penalty>  (158) 
1.01164e-05

>  <r_epik_Ionization_Penalty_Charging>  (158) 
0

>  <r_epik_Ionization_Penalty_Neutral>  (158) 
1.01164e-05

>  <r_epik_State_Penalty>  (158) 
-0

>  <r_epik_Charging_Adjusted_Penalty>  (158) 
0

>  <i_epik_Tot_Q>  (158) 
0

>  <i_epik_Tot_abs_Q>  (158) 
0

>  <s_epik_Chemistry_Notes>  (158) 
This compound has an ester and may undergo hydrolysis at high or low pH.

>  <s_lp_Force_Field>  (158) 
OPLS3e

>  <r_lp_Energy>  (158) 
393.978

>  <b_lp_Chiralities_Consistent>  (158) 
1

>  <s_lp_Variant>  (158) 
48:0-1

>  <s_i_glide_gridfile>  (158) 
pfpi4k_grid

>  <i_i_glide_lignum>  (158) 
22

>  <i_i_glide_rotatable_bonds>  (158) 
2

>  <r_i_docking_score>  (158) 
-2.09708

>  <r_i_glide_ligand_efficiency>  (158) 
-0.0676476

>  <r_i_glide_ligand_efficiency_sa>  (158) 
-0.212507

>  <r_i_glide_ligand_efficiency_ln>  (158) 
-0.472955

>  <r_i_glide_gscore>  (158) 
-2.09708

>  <r_i_glide_lipo>  (158) 
-0.90966

>  <r_i_glide_hbond>  (158) 
0

>  <r_i_glide_metal>  (158) 
-0

>  <r_i_glide_rewards>  (158) 
-0.611916

>  <r_i_glide_evdw>  (158) 
-16.7891

>  <r_i_glide_ecoul>  (158) 
1.79745

>  <r_i_glide_erotb>  (158) 
0

>  <r_i_glide_esite>  (158) 
-0.0056637

>  <r_i_glide_emodel>  (158) 
-16.0447

>  <r_i_glide_energy>  (158) 
-14.9917

>  <r_i_glide_einternal>  (158) 
0.185497

>  <r_i_glide_intrahb_reward>  (158) 
-0

>  <i_i_glide_confnum>  (158) 
1

>  <i_i_glide_posenum>  (158) 
37

>  <r_i_glide_eff_state_penalty>  (158) 
0

>  <ligand_id>  (158) 
48

>  <original_smiles>  (158) 
CC12CC3OC3CC1C1(C)C(=O)C=CC3(O)C4(OC1(C)C)C(=O)OC(C)(C)C3(O)CC24

>  <smiles>  (158) 
[H]OC12C([H])=C([H])C(=O)C3(C([H])([H])[H])C4([H])C([H])([H])C5([H])OC5([H])C([H])([H])C4(C([H])([H])[H])C4([H])C([H])([H])C1(O[H])C(C([H])([H])[H])(C([H])([H])[H])OC(=O)C24OC3(C([H])([H])[H])C([H])([H])[H]

$$$$
48:0:1
     RDKit          3D

 63 68  0  0  1  0  0  0  0  0999 V2000
    6.8452   -3.2136   -1.5669 C   0  0  0  0  0  0  0  0  0  0  0  0
    5.3373   -3.1090   -1.2889 C   0  0  2  0  0  0  0  0  0  0  0  0
    4.7500   -3.6026   -2.6803 C   0  0  0  0  0  0  0  0  0  0  0  0
    3.4990   -3.0065   -3.2410 C   0  0  1  0  0  0  0  0  0  0  0  0
    2.4566   -2.6477   -2.3290 O   0  0  0  0  0  0  0  0  0  0  0  0
    3.2288   -1.5679   -2.9276 C   0  0  1  0  0  0  0  0  0  0  0  0
    4.3116   -0.8621   -2.1416 C   0  0  0  0  0  0  0  0  0  0  0  0
    4.8807   -1.6041   -0.8752 C   0  0  1  0  0  0  0  0  0  0  0  0
    4.5419   -0.9842    0.6777 C   0  0  2  0  0  0  0  0  0  0  0  0
    3.0143   -1.2746    0.3206 C   0  0  0  0  0  0  0  0  0  0  0  0
    3.7718   -1.0611    2.1429 C   0  0  0  0  0  0  0  0  0  0  0  0
    3.3401    0.0290    2.5245 O   0  0  0  0  0  0  0  0  0  0  0  0
    3.7201   -2.1514    3.2441 C   0  0  0  0  0  0  0  0  0  0  0  0
    3.9051   -3.5108    3.2300 C   0  0  0  0  0  0  0  0  0  0  0  0
    4.0185   -4.2309    1.9287 C   0  0  1  0  0  0  0  0  0  0  0  0
    2.7027   -3.9262    1.4255 O   0  0  0  0  0  0  0  0  0  0  0  0
    5.4049   -3.8303    1.2769 C   0  0  1  0  0  0  0  0  0  0  0  0
    6.0102   -2.6722    1.8498 O   0  0  0  0  0  0  0  0  0  0  0  0
    5.9015   -1.3422    1.4711 C   0  0  0  0  0  0  0  0  0  0  0  0
    7.2027   -0.9842    0.6849 C   0  0  0  0  0  0  0  0  0  0  0  0
    6.2281   -0.5248    2.8052 C   0  0  0  0  0  0  0  0  0  0  0  0
    6.6315   -4.7716    1.5890 C   0  0  0  0  0  0  0  0  0  0  0  0
    7.7995   -4.3735    1.4447 O   0  0  0  0  0  0  0  0  0  0  0  0
    6.4173   -6.0270    1.9765 O   0  0  0  0  0  0  0  0  0  0  0  0
    5.1375   -6.5567    2.2626 C   0  0  0  0  0  0  0  0  0  0  0  0
    5.2458   -8.0270    1.7845 C   0  0  0  0  0  0  0  0  0  0  0  0
    4.9863   -6.5449    3.8060 C   0  0  0  0  0  0  0  0  0  0  0  0
    4.0555   -5.7439    1.4984 C   0  0  1  0  0  0  0  0  0  0  0  0
    2.8340   -6.4603    1.6242 O   0  0  0  0  0  0  0  0  0  0  0  0
    4.4433   -5.5454   -0.0529 C   0  0  0  0  0  0  0  0  0  0  0  0
    4.9382   -4.0579   -0.1488 C   0  0  2  0  0  0  0  0  0  0  0  0
    6.9880   -4.0288   -2.2303 H   0  0  0  0  0  0  0  0  0  0  0  0
    7.4570   -3.4276   -0.6980 H   0  0  0  0  0  0  0  0  0  0  0  0
    7.2427   -2.3874   -2.1579 H   0  0  0  0  0  0  0  0  0  0  0  0
    5.4818   -3.4436   -3.4797 H   0  0  0  0  0  0  0  0  0  0  0  0
    4.6236   -4.6841   -2.6499 H   0  0  0  0  0  0  0  0  0  0  0  0
    3.1410   -3.3784   -4.1900 H   0  0  0  0  0  0  0  0  0  0  0  0
    2.7213   -1.0010   -3.6917 H   0  0  0  0  0  0  0  0  0  0  0  0
    5.1206   -0.7573   -2.8861 H   0  0  0  0  0  0  0  0  0  0  0  0
    4.0315    0.1490   -1.9080 H   0  0  0  0  0  0  0  0  0  0  0  0
    5.7772   -1.0648   -1.0925 H   0  0  0  0  0  0  0  0  0  0  0  0
    2.7794   -0.4278   -0.3044 H   0  0  0  0  0  0  0  0  0  0  0  0
    2.0358   -1.1653    0.8720 H   0  0  0  0  0  0  0  0  0  0  0  0
    2.7971   -2.1768   -0.2063 H   0  0  0  0  0  0  0  0  0  0  0  0
    3.5840   -1.7373    4.2397 H   0  0  0  0  0  0  0  0  0  0  0  0
    3.8265   -4.0709    4.1425 H   0  0  0  0  0  0  0  0  0  0  0  0
    2.6633   -3.0012    1.2348 H   0  0  0  0  0  0  0  0  0  0  0  0
    7.0801    0.0629    0.3634 H   0  0  0  0  0  0  0  0  0  0  0  0
    7.5212   -1.5025   -0.1795 H   0  0  0  0  0  0  0  0  0  0  0  0
    8.1136   -1.0842    1.2733 H   0  0  0  0  0  0  0  0  0  0  0  0
    6.1537    0.5445    2.6415 H   0  0  0  0  0  0  0  0  0  0  0  0
    7.2542   -0.5731    3.0537 H   0  0  0  0  0  0  0  0  0  0  0  0
    5.7309   -0.7838    3.7381 H   0  0  0  0  0  0  0  0  0  0  0  0
    4.3549   -8.6106    2.0125 H   0  0  0  0  0  0  0  0  0  0  0  0
    6.0919   -8.5183    2.2685 H   0  0  0  0  0  0  0  0  0  0  0  0
    5.4226   -8.0970    0.7111 H   0  0  0  0  0  0  0  0  0  0  0  0
    3.9595   -6.7180    4.1239 H   0  0  0  0  0  0  0  0  0  0  0  0
    5.3272   -5.6026    4.2336 H   0  0  0  0  0  0  0  0  0  0  0  0
    5.6083   -7.3149    4.2623 H   0  0  0  0  0  0  0  0  0  0  0  0
    2.7833   -6.8015    2.5006 H   0  0  0  0  0  0  0  0  0  0  0  0
    5.2134   -6.2292   -0.3994 H   0  0  0  0  0  0  0  0  0  0  0  0
    3.5661   -5.6845   -0.6746 H   0  0  0  0  0  0  0  0  0  0  0  0
    3.9545   -3.7089   -0.3589 H   0  0  0  0  0  0  0  0  0  0  0  0
  2  1  1  6
  1 32  1  0
  1 33  1  0
  1 34  1  0
  2  8  1  0
  2 31  1  0
  2  3  1  0
  3  4  1  0
  3 35  1  0
  3 36  1  0
  4  6  1  0
  4  5  1  0
  4 37  1  6
  5  6  1  0
  6  7  1  0
  6 38  1  6
  7  8  1  0
  7 39  1  0
  7 40  1  0
  8  9  1  0
  8 41  1  6
  9 19  1  0
  9 10  1  1
  9 11  1  0
 10 42  1  0
 10 43  1  0
 10 44  1  0
 11 12  2  0
 11 13  1  0
 13 14  2  3
 13 45  1  0
 14 15  1  0
 14 46  1  0
 15 28  1  0
 15 16  1  6
 15 17  1  0
 16 47  1  0
 17 31  1  0
 17 18  1  0
 17 22  1  1
 18 19  1  0
 19 20  1  0
 19 21  1  0
 20 48  1  0
 20 49  1  0
 20 50  1  0
 21 51  1  0
 21 52  1  0
 21 53  1  0
 22 23  2  0
 22 24  1  0
 24 25  1  0
 25 26  1  0
 25 27  1  0
 25 28  1  0
 26 54  1  0
 26 55  1  0
 26 56  1  0
 27 57  1  0
 27 58  1  0
 27 59  1  0
 28 29  1  6
 28 30  1  0
 29 60  1  0
 30 31  1  0
 30 61  1  0
 30 62  1  0
 31 63  1  1
M  END
>  <i_m_ct_stereo_status>  (159) 
1

>  <s_m_source_file>  (159) 
/var/tmp/pbs.5076255.sched01/tmpbrsd6n1o/39u_ie0p0h.sdf

>  <i_m_source_file_index>  (159) 
22

>  <i_lp_mmshare_version>  (159) 
48012

>  <i_f3d_flags>  (159) 
0

>  <s_epik_input>  (159) 
W0NIMl0xW0NAQEhdKE8yKVtDQEBIXTJbQ0gyXVtDQEBIXShbQ0BAXShbQ0gzXSkoQyhPMykoW0NIM10pW0NIM10pQyg9TykvW0NIXT1bQ0hdXDQpW0NAQF0xKFtDSDNdKVtDQEhdNVtDSDJdW0NAXShbT0hdKShbQ0BAXTQoW0NAXTM1NilbT0hdKUMoW0NIM10pKFtDSDNdKU9DNj1P

>  <s_epik_cmdline>  (159) 
J2VwaWtfcHl0aG9uJywgJy1waHQnLCAnMi4wJywgJy1waCcsICc3LjAnLCAnLXRuJywgJzgnLCAnLW1hJywgJzIwMCcsICctaW1hZScsICc8aW5maWxlLm1hZT4nLCAnLW9tYWUnLCAnPG91dGZpbGUubWFlPic=

>  <r_lp_tautomer_probability>  (159) 
1

>  <r_epik_Ionization_Penalty>  (159) 
1.01164e-05

>  <r_epik_Ionization_Penalty_Charging>  (159) 
0

>  <r_epik_Ionization_Penalty_Neutral>  (159) 
1.01164e-05

>  <r_epik_State_Penalty>  (159) 
-0

>  <r_epik_Charging_Adjusted_Penalty>  (159) 
0

>  <i_epik_Tot_Q>  (159) 
0

>  <i_epik_Tot_abs_Q>  (159) 
0

>  <s_epik_Chemistry_Notes>  (159) 
This compound has an ester and may undergo hydrolysis at high or low pH.

>  <s_lp_Force_Field>  (159) 
OPLS3e

>  <r_lp_Energy>  (159) 
393.978

>  <b_lp_Chiralities_Consistent>  (159) 
1

>  <s_lp_Variant>  (159) 
48:0-1

>  <s_i_glide_gridfile>  (159) 
pfpi4k_grid

>  <i_i_glide_lignum>  (159) 
22

>  <i_i_glide_rotatable_bonds>  (159) 
2

>  <r_i_docking_score>  (159) 
-1.58856

>  <r_i_glide_ligand_efficiency>  (159) 
-0.0512439

>  <r_i_glide_ligand_efficiency_sa>  (159) 
-0.160977

>  <r_i_glide_ligand_efficiency_ln>  (159) 
-0.358269

>  <r_i_glide_gscore>  (159) 
-1.58856

>  <r_i_glide_lipo>  (159) 
-0.768476

>  <r_i_glide_hbond>  (159) 
0

>  <r_i_glide_metal>  (159) 
-0

>  <r_i_glide_rewards>  (159) 
-0.569535

>  <r_i_glide_evdw>  (159) 
-8.43734

>  <r_i_glide_ecoul>  (159) 
1.14533

>  <r_i_glide_erotb>  (159) 
0

>  <r_i_glide_esite>  (159) 
-0.000482011

>  <r_i_glide_emodel>  (159) 
-7.61097

>  <r_i_glide_energy>  (159) 
-7.29201

>  <r_i_glide_einternal>  (159) 
0.601536

>  <r_i_glide_intrahb_reward>  (159) 
-0

>  <i_i_glide_confnum>  (159) 
2

>  <i_i_glide_posenum>  (159) 
18

>  <r_i_glide_eff_state_penalty>  (159) 
0

>  <ligand_id>  (159) 
48

>  <original_smiles>  (159) 
CC12CC3OC3CC1C1(C)C(=O)C=CC3(O)C4(OC1(C)C)C(=O)OC(C)(C)C3(O)CC24

>  <smiles>  (159) 
[H]OC12C([H])=C([H])C(=O)C3(C([H])([H])[H])C4([H])C([H])([H])C5([H])OC5([H])C([H])([H])C4(C([H])([H])[H])C4([H])C([H])([H])C1(O[H])C(C([H])([H])[H])(C([H])([H])[H])OC(=O)C24OC3(C([H])([H])[H])C([H])([H])[H]

$$$$
48:1:0
     RDKit          3D

 63 68  0  0  1  0  0  0  0  0999 V2000
    4.9048   -1.5064    4.1229 C   0  0  0  0  0  0  0  0  0  0  0  0
    3.6344   -2.1527    3.4910 C   0  0  2  0  0  0  0  0  0  0  0  0
    2.5616   -0.9944    3.5445 C   0  0  0  0  0  0  0  0  0  0  0  0
    1.5360   -0.9968    4.6607 C   0  0  1  0  0  0  0  0  0  0  0  0
    0.4691   -1.9353    4.4513 O   0  0  0  0  0  0  0  0  0  0  0  0
    1.2891   -2.1469    5.5973 C   0  0  1  0  0  0  0  0  0  0  0  0
    2.1888   -3.3563    5.5871 C   0  0  0  0  0  0  0  0  0  0  0  0
    3.2857   -3.4320    4.4700 C   0  0  1  0  0  0  0  0  0  0  0  0
    3.3119   -4.7013    3.5648 C   0  0  2  0  0  0  0  0  0  0  0  0
    1.8736   -4.2214    2.9112 C   0  0  0  0  0  0  0  0  0  0  0  0
    2.7932   -6.1378    3.4184 C   0  0  0  0  0  0  0  0  0  0  0  0
    2.4711   -6.8437    4.3769 O   0  0  0  0  0  0  0  0  0  0  0  0
    2.7082   -6.5742    1.9521 C   0  0  0  0  0  0  0  0  0  0  0  0
    3.1654   -5.8476    0.8431 C   0  0  0  0  0  0  0  0  0  0  0  0
    4.0570   -4.6129    0.3777 C   0  0  2  0  0  0  0  0  0  0  0  0
    4.9864   -5.2859   -0.4367 O   0  0  0  0  0  0  0  0  0  0  0  0
    4.8941   -3.5690    1.3384 C   0  0  1  0  0  0  0  0  0  0  0  0
    5.5753   -4.0873    2.4481 O   0  0  0  0  0  0  0  0  0  0  0  0
    4.9320   -5.0249    3.2545 C   0  0  0  0  0  0  0  0  0  0  0  0
    5.7762   -5.0512    4.5761 C   0  0  0  0  0  0  0  0  0  0  0  0
    5.5195   -6.3761    2.6513 C   0  0  0  0  0  0  0  0  0  0  0  0
    6.0014   -2.8577    0.4595 C   0  0  0  0  0  0  0  0  0  0  0  0
    7.1241   -2.6271    0.8762 O   0  0  0  0  0  0  0  0  0  0  0  0
    5.6289   -2.4484   -0.7855 O   0  0  0  0  0  0  0  0  0  0  0  0
    4.3520   -2.6770   -1.3899 C   0  0  0  0  0  0  0  0  0  0  0  0
    3.9238   -1.2393   -1.7948 C   0  0  0  0  0  0  0  0  0  0  0  0
    4.6044   -3.4282   -2.7348 C   0  0  0  0  0  0  0  0  0  0  0  0
    3.3541   -3.4207   -0.3854 C   0  0  1  0  0  0  0  0  0  0  0  0
    2.2151   -3.8611   -1.0837 O   0  0  0  0  0  0  0  0  0  0  0  0
    2.8959   -2.4037    0.7317 C   0  0  0  0  0  0  0  0  0  0  0  0
    3.9559   -2.4197    1.8803 C   0  0  1  0  0  0  0  0  0  0  0  0
    5.1752   -0.5526    3.6721 H   0  0  0  0  0  0  0  0  0  0  0  0
    5.7840   -2.1330    4.0129 H   0  0  0  0  0  0  0  0  0  0  0  0
    4.7835   -1.3194    5.1928 H   0  0  0  0  0  0  0  0  0  0  0  0
    3.0342   -0.0134    3.5725 H   0  0  0  0  0  0  0  0  0  0  0  0
    1.9591   -0.9594    2.6378 H   0  0  0  0  0  0  0  0  0  0  0  0
    1.1832   -0.0230    4.9834 H   0  0  0  0  0  0  0  0  0  0  0  0
    0.7460   -1.9883    6.5318 H   0  0  0  0  0  0  0  0  0  0  0  0
    2.7017   -3.3374    6.5520 H   0  0  0  0  0  0  0  0  0  0  0  0
    1.5890   -4.2680    5.6259 H   0  0  0  0  0  0  0  0  0  0  0  0
    4.1201   -3.4951    5.1450 H   0  0  0  0  0  0  0  0  0  0  0  0
    1.6044   -3.1843    2.9095 H   0  0  0  0  0  0  0  0  0  0  0  0
    1.0145   -4.5984    3.4786 H   0  0  0  0  0  0  0  0  0  0  0  0
    1.5717   -4.4520    1.9023 H   0  0  0  0  0  0  0  0  0  0  0  0
    2.1815   -7.4822    1.7025 H   0  0  0  0  0  0  0  0  0  0  0  0
    3.4397   -5.0503    1.3770 H   0  0  0  0  0  0  0  0  0  0  0  0
    4.5475   -5.6605   -1.1910 H   0  0  0  0  0  0  0  0  0  0  0  0
    5.2257   -5.5728    5.3617 H   0  0  0  0  0  0  0  0  0  0  0  0
    6.0522   -4.0602    4.9342 H   0  0  0  0  0  0  0  0  0  0  0  0
    6.7429   -5.5546    4.4889 H   0  0  0  0  0  0  0  0  0  0  0  0
    5.3013   -7.2431    3.2723 H   0  0  0  0  0  0  0  0  0  0  0  0
    6.6064   -6.3299    2.5607 H   0  0  0  0  0  0  0  0  0  0  0  0
    5.2734   -6.6516    1.6376 H   0  0  0  0  0  0  0  0  0  0  0  0
    2.8665   -1.1941   -2.0753 H   0  0  0  0  0  0  0  0  0  0  0  0
    4.5164   -0.8633   -2.6365 H   0  0  0  0  0  0  0  0  0  0  0  0
    4.1025   -0.5296   -0.9805 H   0  0  0  0  0  0  0  0  0  0  0  0
    3.6690   -3.6154   -3.2723 H   0  0  0  0  0  0  0  0  0  0  0  0
    5.1046   -4.3898   -2.6298 H   0  0  0  0  0  0  0  0  0  0  0  0
    5.2673   -2.8534   -3.3869 H   0  0  0  0  0  0  0  0  0  0  0  0
    2.4738   -4.4840   -1.7556 H   0  0  0  0  0  0  0  0  0  0  0  0
    2.7631   -1.3800    0.3899 H   0  0  0  0  0  0  0  0  0  0  0  0
    1.8776   -2.6095    1.0111 H   0  0  0  0  0  0  0  0  0  0  0  0
    4.4725   -1.4855    1.6677 H   0  0  0  0  0  0  0  0  0  0  0  0
  2  1  1  1
  1 32  1  0
  1 33  1  0
  1 34  1  0
  2  8  1  0
  2 31  1  0
  2  3  1  0
  3  4  1  0
  3 35  1  0
  3 36  1  0
  4  6  1  0
  4  5  1  0
  4 37  1  1
  5  6  1  0
  6  7  1  0
  6 38  1  1
  7  8  1  0
  7 39  1  0
  7 40  1  0
  8  9  1  0
  8 41  1  1
  9 19  1  0
  9 10  1  6
  9 11  1  0
 10 42  1  0
 10 43  1  0
 10 44  1  0
 11 12  2  0
 11 13  1  0
 13 14  2  3
 13 45  1  0
 14 15  1  0
 14 46  1  0
 15 28  1  0
 15 16  1  6
 15 17  1  0
 16 47  1  0
 17 31  1  0
 17 18  1  0
 17 22  1  6
 18 19  1  0
 19 20  1  0
 19 21  1  0
 20 48  1  0
 20 49  1  0
 20 50  1  0
 21 51  1  0
 21 52  1  0
 21 53  1  0
 22 23  2  0
 22 24  1  0
 24 25  1  0
 25 26  1  0
 25 27  1  0
 25 28  1  0
 26 54  1  0
 26 55  1  0
 26 56  1  0
 27 57  1  0
 27 58  1  0
 27 59  1  0
 28 29  1  6
 28 30  1  0
 29 60  1  0
 30 31  1  0
 30 61  1  0
 30 62  1  0
 31 63  1  6
M  END
>  <i_m_ct_stereo_status>  (160) 
1

>  <s_m_source_file>  (160) 
/var/tmp/pbs.5076255.sched01/tmpbrsd6n1o/39u_ie0p0h.sdf

>  <i_m_source_file_index>  (160) 
23

>  <i_lp_mmshare_version>  (160) 
48012

>  <i_f3d_flags>  (160) 
2

>  <s_epik_input>  (160) 
W0NIMl0xW0NAQEhdKE8yKVtDQEBIXTJbQ0gyXVtDQEBIXShbQ0BAXShbQ0gzXSkoQyhPMykoW0NIM10pW0NIM10pQyg9TykvW0NIXT1bQ0hdXDQpW0NAQF0xKFtDSDNdKVtDQEhdNVtDSDJdW0NAXShbT0hdKShbQ0BAXTQoW0NAXTM1NilbT0hdKUMoW0NIM10pKFtDSDNdKU9DNj1P

>  <s_epik_cmdline>  (160) 
J2VwaWtfcHl0aG9uJywgJy1waHQnLCAnMi4wJywgJy1waCcsICc3LjAnLCAnLXRuJywgJzgnLCAnLW1hJywgJzIwMCcsICctaW1hZScsICc8aW5maWxlLm1hZT4nLCAnLW9tYWUnLCAnPG91dGZpbGUubWFlPic=

>  <r_lp_tautomer_probability>  (160) 
1

>  <r_epik_Ionization_Penalty>  (160) 
1.01164e-05

>  <r_epik_Ionization_Penalty_Charging>  (160) 
0

>  <r_epik_Ionization_Penalty_Neutral>  (160) 
1.01164e-05

>  <r_epik_State_Penalty>  (160) 
-0

>  <r_epik_Charging_Adjusted_Penalty>  (160) 
0

>  <i_epik_Tot_Q>  (160) 
0

>  <i_epik_Tot_abs_Q>  (160) 
0

>  <s_epik_Chemistry_Notes>  (160) 
This compound has an ester and may undergo hydrolysis at high or low pH.

>  <s_lp_Force_Field>  (160) 
OPLS3e

>  <r_lp_Energy>  (160) 
273.112

>  <b_lp_Chiralities_Consistent>  (160) 
0

>  <s_lp_Variant>  (160) 
48:0-2

>  <s_i_glide_gridfile>  (160) 
pfpi4k_grid

>  <i_i_glide_lignum>  (160) 
23

>  <i_i_glide_rotatable_bonds>  (160) 
2

>  <r_i_docking_score>  (160) 
-3.03332

>  <r_i_glide_ligand_efficiency>  (160) 
-0.0978491

>  <r_i_glide_ligand_efficiency_sa>  (160) 
-0.307381

>  <r_i_glide_ligand_efficiency_ln>  (160) 
-0.684107

>  <r_i_glide_gscore>  (160) 
-3.03332

>  <r_i_glide_lipo>  (160) 
-0.198908

>  <r_i_glide_hbond>  (160) 
0

>  <r_i_glide_metal>  (160) 
-0

>  <r_i_glide_rewards>  (160) 
-0.548173

>  <r_i_glide_evdw>  (160) 
-27.4079

>  <r_i_glide_ecoul>  (160) 
-6.10336

>  <r_i_glide_erotb>  (160) 
0

>  <r_i_glide_esite>  (160) 
-0.000343541

>  <r_i_glide_emodel>  (160) 
-37.0636

>  <r_i_glide_energy>  (160) 
-33.5112

>  <r_i_glide_einternal>  (160) 
0.0836125

>  <r_i_glide_intrahb_reward>  (160) 
-0

>  <i_i_glide_confnum>  (160) 
2

>  <i_i_glide_posenum>  (160) 
1

>  <r_i_glide_eff_state_penalty>  (160) 
0

>  <ligand_id>  (160) 
48

>  <original_smiles>  (160) 
CC12CC3OC3CC1C1(C)C(=O)C=CC3(O)C4(OC1(C)C)C(=O)OC(C)(C)C3(O)CC24

>  <smiles>  (160) 
[H]OC12C([H])=C([H])C(=O)C3(C([H])([H])[H])C4([H])C([H])([H])C5([H])OC5([H])C([H])([H])C4(C([H])([H])[H])C4([H])C([H])([H])C1(O[H])C(C([H])([H])[H])(C([H])([H])[H])OC(=O)C24OC3(C([H])([H])[H])C([H])([H])[H]

$$$$
48:1:1
     RDKit          3D

 63 68  0  0  1  0  0  0  0  0999 V2000
    5.3509   -1.5193    3.7688 C   0  0  0  0  0  0  0  0  0  0  0  0
    3.9777   -1.9888    3.2192 C   0  0  2  0  0  0  0  0  0  0  0  0
    3.0828   -0.6917    3.3436 C   0  0  0  0  0  0  0  0  0  0  0  0
    2.1392   -0.5636    4.5197 C   0  0  1  0  0  0  0  0  0  0  0  0
    0.9568   -1.3484    4.3816 O   0  0  0  0  0  0  0  0  0  0  0  0
    1.7981   -1.6783    5.4766 C   0  0  1  0  0  0  0  0  0  0  0  0
    2.5206   -2.9976    5.4152 C   0  0  0  0  0  0  0  0  0  0  0  0
    3.5268   -3.2112    4.2308 C   0  0  1  0  0  0  0  0  0  0  0  0
    3.3319   -4.4761    3.3514 C   0  0  2  0  0  0  0  0  0  0  0  0
    1.9361   -3.7970    2.7776 C   0  0  0  0  0  0  0  0  0  0  0  0
    2.6034   -5.8257    3.2144 C   0  0  0  0  0  0  0  0  0  0  0  0
    2.2459   -6.4823    4.1974 O   0  0  0  0  0  0  0  0  0  0  0  0
    2.3711   -6.2339    1.7618 C   0  0  0  0  0  0  0  0  0  0  0  0
    2.8524   -5.5621    0.6503 C   0  0  0  0  0  0  0  0  0  0  0  0
    3.8695   -4.4580    0.1394 C   0  0  2  0  0  0  0  0  0  0  0  0
    4.6606   -5.2510   -0.7196 O   0  0  0  0  0  0  0  0  0  0  0  0
    4.8912   -3.5580    1.0312 C   0  0  1  0  0  0  0  0  0  0  0  0
    5.5711   -4.1648    2.0780 O   0  0  0  0  0  0  0  0  0  0  0  0
    4.8673   -5.0149    2.9252 C   0  0  0  0  0  0  0  0  0  0  0  0
    5.7760   -5.1658    4.1914 C   0  0  0  0  0  0  0  0  0  0  0  0
    5.2228   -6.4316    2.2881 C   0  0  0  0  0  0  0  0  0  0  0  0
    6.0456   -2.9972    0.0949 C   0  0  0  0  0  0  0  0  0  0  0  0
    7.2035   -2.9039    0.4541 O   0  0  0  0  0  0  0  0  0  0  0  0
    5.6695   -2.5330   -1.1496 O   0  0  0  0  0  0  0  0  0  0  0  0
    4.3299   -2.5810   -1.6793 C   0  0  0  0  0  0  0  0  0  0  0  0
    4.0720   -1.0946   -2.0654 C   0  0  0  0  0  0  0  0  0  0  0  0
    4.3897   -3.3571   -3.0312 C   0  0  0  0  0  0  0  0  0  0  0  0
    3.2965   -3.1878   -0.5999 C   0  0  1  0  0  0  0  0  0  0  0  0
    2.0605   -3.4715   -1.2220 O   0  0  0  0  0  0  0  0  0  0  0  0
    3.0506   -2.1218    0.5236 C   0  0  0  0  0  0  0  0  0  0  0  0
    4.1661   -2.2887    1.5975 C   0  0  1  0  0  0  0  0  0  0  0  0
    5.7315   -0.6133    3.3030 H   0  0  0  0  0  0  0  0  0  0  0  0
    6.0972   -2.2801    3.5787 H   0  0  0  0  0  0  0  0  0  0  0  0
    5.3367   -1.3376    4.8474 H   0  0  0  0  0  0  0  0  0  0  0  0
    3.6884    0.2123    3.3435 H   0  0  0  0  0  0  0  0  0  0  0  0
    2.4351   -0.5694    2.4699 H   0  0  0  0  0  0  0  0  0  0  0  0
    1.9470    0.4428    4.8644 H   0  0  0  0  0  0  0  0  0  0  0  0
    1.3418   -1.4510    6.4373 H   0  0  0  0  0  0  0  0  0  0  0  0
    3.0950   -3.0564    6.3471 H   0  0  0  0  0  0  0  0  0  0  0  0
    1.8057   -3.8178    5.4898 H   0  0  0  0  0  0  0  0  0  0  0  0
    4.3852   -3.3926    4.8488 H   0  0  0  0  0  0  0  0  0  0  0  0
    1.8071   -2.7352    2.7864 H   0  0  0  0  0  0  0  0  0  0  0  0
    1.0686   -4.0606    3.3848 H   0  0  0  0  0  0  0  0  0  0  0  0
    1.5581   -3.9709    1.7837 H   0  0  0  0  0  0  0  0  0  0  0  0
    1.7105   -7.0699    1.5443 H   0  0  0  0  0  0  0  0  0  0  0  0
    3.2643   -4.8249    1.1656 H   0  0  0  0  0  0  0  0  0  0  0  0
    4.1198   -5.5755   -1.4186 H   0  0  0  0  0  0  0  0  0  0  0  0
    5.2039   -5.6141    5.0088 H   0  0  0  0  0  0  0  0  0  0  0  0
    6.2029   -4.2242    4.5314 H   0  0  0  0  0  0  0  0  0  0  0  0
    6.6565   -5.7960    4.0421 H   0  0  0  0  0  0  0  0  0  0  0  0
    4.9256   -7.2623    2.9233 H   0  0  0  0  0  0  0  0  0  0  0  0
    6.2972   -6.5305    2.1285 H   0  0  0  0  0  0  0  0  0  0  0  0
    4.8756   -6.6668    1.2947 H   0  0  0  0  0  0  0  0  0  0  0  0
    3.0173   -0.9046   -2.2850 H   0  0  0  0  0  0  0  0  0  0  0  0
    4.6581   -0.8024   -2.9417 H   0  0  0  0  0  0  0  0  0  0  0  0
    4.3922   -0.4148   -1.2691 H   0  0  0  0  0  0  0  0  0  0  0  0
    3.4074   -3.4145   -3.5063 H   0  0  0  0  0  0  0  0  0  0  0  0
    4.7626   -4.3749   -2.9376 H   0  0  0  0  0  0  0  0  0  0  0  0
    5.0799   -2.8715   -3.7282 H   0  0  0  0  0  0  0  0  0  0  0  0
    1.6484   -2.6306   -1.4724 H   0  0  0  0  0  0  0  0  0  0  0  0
    3.0318   -1.0944    0.1807 H   0  0  0  0  0  0  0  0  0  0  0  0
    2.0390   -2.1902    0.8751 H   0  0  0  0  0  0  0  0  0  0  0  0
    4.7948   -1.4317    1.3530 H   0  0  0  0  0  0  0  0  0  0  0  0
  2  1  1  1
  1 32  1  0
  1 33  1  0
  1 34  1  0
  2  8  1  0
  2 31  1  0
  2  3  1  0
  3  4  1  0
  3 35  1  0
  3 36  1  0
  4  6  1  0
  4  5  1  0
  4 37  1  1
  5  6  1  0
  6  7  1  0
  6 38  1  1
  7  8  1  0
  7 39  1  0
  7 40  1  0
  8  9  1  0
  8 41  1  1
  9 19  1  0
  9 10  1  6
  9 11  1  0
 10 42  1  0
 10 43  1  0
 10 44  1  0
 11 12  2  0
 11 13  1  0
 13 14  2  3
 13 45  1  0
 14 15  1  0
 14 46  1  0
 15 28  1  0
 15 16  1  6
 15 17  1  0
 16 47  1  0
 17 31  1  0
 17 18  1  0
 17 22  1  6
 18 19  1  0
 19 20  1  0
 19 21  1  0
 20 48  1  0
 20 49  1  0
 20 50  1  0
 21 51  1  0
 21 52  1  0
 21 53  1  0
 22 23  2  0
 22 24  1  0
 24 25  1  0
 25 26  1  0
 25 27  1  0
 25 28  1  0
 26 54  1  0
 26 55  1  0
 26 56  1  0
 27 57  1  0
 27 58  1  0
 27 59  1  0
 28 29  1  6
 28 30  1  0
 29 60  1  0
 30 31  1  0
 30 61  1  0
 30 62  1  0
 31 63  1  6
M  END
>  <i_m_ct_stereo_status>  (161) 
1

>  <s_m_source_file>  (161) 
/var/tmp/pbs.5076255.sched01/tmpbrsd6n1o/39u_ie0p0h.sdf

>  <i_m_source_file_index>  (161) 
23

>  <i_lp_mmshare_version>  (161) 
48012

>  <i_f3d_flags>  (161) 
2

>  <s_epik_input>  (161) 
W0NIMl0xW0NAQEhdKE8yKVtDQEBIXTJbQ0gyXVtDQEBIXShbQ0BAXShbQ0gzXSkoQyhPMykoW0NIM10pW0NIM10pQyg9TykvW0NIXT1bQ0hdXDQpW0NAQF0xKFtDSDNdKVtDQEhdNVtDSDJdW0NAXShbT0hdKShbQ0BAXTQoW0NAXTM1NilbT0hdKUMoW0NIM10pKFtDSDNdKU9DNj1P

>  <s_epik_cmdline>  (161) 
J2VwaWtfcHl0aG9uJywgJy1waHQnLCAnMi4wJywgJy1waCcsICc3LjAnLCAnLXRuJywgJzgnLCAnLW1hJywgJzIwMCcsICctaW1hZScsICc8aW5maWxlLm1hZT4nLCAnLW9tYWUnLCAnPG91dGZpbGUubWFlPic=

>  <r_lp_tautomer_probability>  (161) 
1

>  <r_epik_Ionization_Penalty>  (161) 
1.01164e-05

>  <r_epik_Ionization_Penalty_Charging>  (161) 
0

>  <r_epik_Ionization_Penalty_Neutral>  (161) 
1.01164e-05

>  <r_epik_State_Penalty>  (161) 
-0

>  <r_epik_Charging_Adjusted_Penalty>  (161) 
0

>  <i_epik_Tot_Q>  (161) 
0

>  <i_epik_Tot_abs_Q>  (161) 
0

>  <s_epik_Chemistry_Notes>  (161) 
This compound has an ester and may undergo hydrolysis at high or low pH.

>  <s_lp_Force_Field>  (161) 
OPLS3e

>  <r_lp_Energy>  (161) 
273.112

>  <b_lp_Chiralities_Consistent>  (161) 
0

>  <s_lp_Variant>  (161) 
48:0-2

>  <s_i_glide_gridfile>  (161) 
pfpi4k_grid

>  <i_i_glide_lignum>  (161) 
23

>  <i_i_glide_rotatable_bonds>  (161) 
2

>  <r_i_docking_score>  (161) 
-2.93309

>  <r_i_glide_ligand_efficiency>  (161) 
-0.0946157

>  <r_i_glide_ligand_efficiency_sa>  (161) 
-0.297224

>  <r_i_glide_ligand_efficiency_ln>  (161) 
-0.661501

>  <r_i_glide_gscore>  (161) 
-2.93309

>  <r_i_glide_lipo>  (161) 
-0.204069

>  <r_i_glide_hbond>  (161) 
0

>  <r_i_glide_metal>  (161) 
-0

>  <r_i_glide_rewards>  (161) 
-0.53397

>  <r_i_glide_evdw>  (161) 
-24.8938

>  <r_i_glide_ecoul>  (161) 
-6.32589

>  <r_i_glide_erotb>  (161) 
0

>  <r_i_glide_esite>  (161) 
-0.00147221

>  <r_i_glide_emodel>  (161) 
-34.8475

>  <r_i_glide_energy>  (161) 
-31.2197

>  <r_i_glide_einternal>  (161) 
0.227053

>  <r_i_glide_intrahb_reward>  (161) 
-0

>  <i_i_glide_confnum>  (161) 
2

>  <i_i_glide_posenum>  (161) 
17

>  <r_i_glide_eff_state_penalty>  (161) 
0

>  <ligand_id>  (161) 
48

>  <original_smiles>  (161) 
CC12CC3OC3CC1C1(C)C(=O)C=CC3(O)C4(OC1(C)C)C(=O)OC(C)(C)C3(O)CC24

>  <smiles>  (161) 
[H]OC12C([H])=C([H])C(=O)C3(C([H])([H])[H])C4([H])C([H])([H])C5([H])OC5([H])C([H])([H])C4(C([H])([H])[H])C4([H])C([H])([H])C1(O[H])C(C([H])([H])[H])(C([H])([H])[H])OC(=O)C24OC3(C([H])([H])[H])C([H])([H])[H]

$$$$
48:1:2
     RDKit          3D

 63 68  0  0  1  0  0  0  0  0999 V2000
    6.1500   -1.1539    2.2406 C   0  0  0  0  0  0  0  0  0  0  0  0
    4.7678   -1.7380    2.0905 C   0  0  2  0  0  0  0  0  0  0  0  0
    3.7846   -0.5629    2.5559 C   0  0  0  0  0  0  0  0  0  0  0  0
    3.1987   -0.6389    3.9300 C   0  0  1  0  0  0  0  0  0  0  0  0
    2.0806   -1.5462    4.0238 O   0  0  0  0  0  0  0  0  0  0  0  0
    3.2250   -1.8578    4.8227 C   0  0  1  0  0  0  0  0  0  0  0  0
    4.0324   -3.0682    4.4628 C   0  0  0  0  0  0  0  0  0  0  0  0
    4.7228   -3.0900    3.0430 C   0  0  1  0  0  0  0  0  0  0  0  0
    4.3585   -4.2706    2.1698 C   0  0  2  0  0  0  0  0  0  0  0  0
    2.7962   -3.7062    2.0616 C   0  0  0  0  0  0  0  0  0  0  0  0
    3.7837   -5.6989    2.1839 C   0  0  0  0  0  0  0  0  0  0  0  0
    3.8385   -6.4713    3.1703 O   0  0  0  0  0  0  0  0  0  0  0  0
    3.2044   -5.9856    0.8313 C   0  0  0  0  0  0  0  0  0  0  0  0
    3.2882   -5.1759   -0.3114 C   0  0  0  0  0  0  0  0  0  0  0  0
    4.0498   -3.9493   -1.0409 C   0  0  2  0  0  0  0  0  0  0  0  0
    4.7032   -4.5230   -2.1282 O   0  0  0  0  0  0  0  0  0  0  0  0
    5.2127   -3.0050   -0.3918 C   0  0  1  0  0  0  0  0  0  0  0  0
    6.1641   -3.6461    0.3963 O   0  0  0  0  0  0  0  0  0  0  0  0
    5.7408   -4.6603    1.2595 C   0  0  0  0  0  0  0  0  0  0  0  0
    6.9990   -4.8249    2.1287 C   0  0  0  0  0  0  0  0  0  0  0  0
    6.0422   -5.9422    0.4256 C   0  0  0  0  0  0  0  0  0  0  0  0
    6.0036   -2.2956   -1.5657 C   0  0  0  0  0  0  0  0  0  0  0  0
    7.2423   -2.2645   -1.5831 O   0  0  0  0  0  0  0  0  0  0  0  0
    5.2603   -1.8108   -2.5899 O   0  0  0  0  0  0  0  0  0  0  0  0
    3.8539   -1.9524   -2.7745 C   0  0  0  0  0  0  0  0  0  0  0  0
    3.3907   -0.4959   -2.9741 C   0  0  0  0  0  0  0  0  0  0  0  0
    3.6046   -2.6193   -4.1612 C   0  0  0  0  0  0  0  0  0  0  0  0
    3.1953   -2.7166   -1.5287 C   0  0  1  0  0  0  0  0  0  0  0  0
    1.8671   -3.0753   -1.8191 O   0  0  0  0  0  0  0  0  0  0  0  0
    3.1939   -1.7674   -0.2758 C   0  0  0  0  0  0  0  0  0  0  0  0
    4.5466   -1.8589    0.4592 C   0  0  1  0  0  0  0  0  0  0  0  0
    6.2679   -0.2055    1.7453 H   0  0  0  0  0  0  0  0  0  0  0  0
    6.9393   -1.7954    1.8223 H   0  0  0  0  0  0  0  0  0  0  0  0
    6.3629   -1.0003    3.2884 H   0  0  0  0  0  0  0  0  0  0  0  0
    4.2969    0.3951    2.4716 H   0  0  0  0  0  0  0  0  0  0  0  0
    2.9413   -0.4599    1.8854 H   0  0  0  0  0  0  0  0  0  0  0  0
    3.0059    0.3061    4.4044 H   0  0  0  0  0  0  0  0  0  0  0  0
    3.0109   -1.7584    5.8858 H   0  0  0  0  0  0  0  0  0  0  0  0
    4.8274   -3.1420    5.1987 H   0  0  0  0  0  0  0  0  0  0  0  0
    3.4352   -3.9693    4.6104 H   0  0  0  0  0  0  0  0  0  0  0  0
    5.7574   -3.2267    3.3825 H   0  0  0  0  0  0  0  0  0  0  0  0
    2.5991   -2.6595    2.1890 H   0  0  0  0  0  0  0  0  0  0  0  0
    2.1320   -4.1278    2.8325 H   0  0  0  0  0  0  0  0  0  0  0  0
    2.1714   -3.8279    1.2129 H   0  0  0  0  0  0  0  0  0  0  0  0
    2.5631   -6.8316    0.6907 H   0  0  0  0  0  0  0  0  0  0  0  0
    3.7138   -4.3956    0.0936 H   0  0  0  0  0  0  0  0  0  0  0  0
    4.0661   -5.1323   -2.4739 H   0  0  0  0  0  0  0  0  0  0  0  0
    6.7051   -5.3408    3.0724 H   0  0  0  0  0  0  0  0  0  0  0  0
    7.3300   -3.7967    2.1189 H   0  0  0  0  0  0  0  0  0  0  0  0
    7.8706   -5.3609    1.7146 H   0  0  0  0  0  0  0  0  0  0  0  0
    6.0157   -6.8533    1.0141 H   0  0  0  0  0  0  0  0  0  0  0  0
    7.0486   -5.9017   -0.0146 H   0  0  0  0  0  0  0  0  0  0  0  0
    5.4816   -6.1243   -0.4790 H   0  0  0  0  0  0  0  0  0  0  0  0
    2.3081   -0.3851   -2.8673 H   0  0  0  0  0  0  0  0  0  0  0  0
    3.6720   -0.0763   -3.9474 H   0  0  0  0  0  0  0  0  0  0  0  0
    3.8854    0.1256   -2.2404 H   0  0  0  0  0  0  0  0  0  0  0  0
    2.5425   -2.7362   -4.3831 H   0  0  0  0  0  0  0  0  0  0  0  0
    4.0934   -3.5873   -4.2972 H   0  0  0  0  0  0  0  0  0  0  0  0
    4.0228   -1.9632   -4.9340 H   0  0  0  0  0  0  0  0  0  0  0  0
    1.3148   -2.3350   -1.6000 H   0  0  0  0  0  0  0  0  0  0  0  0
    3.0255   -0.7267   -0.5240 H   0  0  0  0  0  0  0  0  0  0  0  0
    2.3151   -1.9839    0.3119 H   0  0  0  0  0  0  0  0  0  0  0  0
    4.9949   -0.9255    0.1263 H   0  0  0  0  0  0  0  0  0  0  0  0
  2  1  1  6
  1 32  1  0
  1 33  1  0
  1 34  1  0
  2  8  1  0
  2 31  1  0
  2  3  1  0
  3  4  1  0
  3 35  1  0
  3 36  1  0
  4  6  1  0
  4  5  1  0
  4 37  1  1
  5  6  1  0
  6  7  1  0
  6 38  1  1
  7  8  1  0
  7 39  1  0
  7 40  1  0
  8  9  1  0
  8 41  1  1
  9 19  1  0
  9 10  1  6
  9 11  1  0
 10 42  1  0
 10 43  1  0
 10 44  1  0
 11 12  2  0
 11 13  1  0
 13 14  2  3
 13 45  1  0
 14 15  1  0
 14 46  1  0
 15 28  1  0
 15 16  1  6
 15 17  1  0
 16 47  1  0
 17 31  1  0
 17 18  1  0
 17 22  1  6
 18 19  1  0
 19 20  1  0
 19 21  1  0
 20 48  1  0
 20 49  1  0
 20 50  1  0
 21 51  1  0
 21 52  1  0
 21 53  1  0
 22 23  2  0
 22 24  1  0
 24 25  1  0
 25 26  1  0
 25 27  1  0
 25 28  1  0
 26 54  1  0
 26 55  1  0
 26 56  1  0
 27 57  1  0
 27 58  1  0
 27 59  1  0
 28 29  1  6
 28 30  1  0
 29 60  1  0
 30 31  1  0
 30 61  1  0
 30 62  1  0
 31 63  1  6
M  END
>  <i_m_ct_stereo_status>  (162) 
1

>  <s_m_source_file>  (162) 
/var/tmp/pbs.5076255.sched01/tmpbrsd6n1o/39u_ie0p0h.sdf

>  <i_m_source_file_index>  (162) 
23

>  <i_lp_mmshare_version>  (162) 
48012

>  <i_f3d_flags>  (162) 
2

>  <s_epik_input>  (162) 
W0NIMl0xW0NAQEhdKE8yKVtDQEBIXTJbQ0gyXVtDQEBIXShbQ0BAXShbQ0gzXSkoQyhPMykoW0NIM10pW0NIM10pQyg9TykvW0NIXT1bQ0hdXDQpW0NAQF0xKFtDSDNdKVtDQEhdNVtDSDJdW0NAXShbT0hdKShbQ0BAXTQoW0NAXTM1NilbT0hdKUMoW0NIM10pKFtDSDNdKU9DNj1P

>  <s_epik_cmdline>  (162) 
J2VwaWtfcHl0aG9uJywgJy1waHQnLCAnMi4wJywgJy1waCcsICc3LjAnLCAnLXRuJywgJzgnLCAnLW1hJywgJzIwMCcsICctaW1hZScsICc8aW5maWxlLm1hZT4nLCAnLW9tYWUnLCAnPG91dGZpbGUubWFlPic=

>  <r_lp_tautomer_probability>  (162) 
1

>  <r_epik_Ionization_Penalty>  (162) 
1.01164e-05

>  <r_epik_Ionization_Penalty_Charging>  (162) 
0

>  <r_epik_Ionization_Penalty_Neutral>  (162) 
1.01164e-05

>  <r_epik_State_Penalty>  (162) 
-0

>  <r_epik_Charging_Adjusted_Penalty>  (162) 
0

>  <i_epik_Tot_Q>  (162) 
0

>  <i_epik_Tot_abs_Q>  (162) 
0

>  <s_epik_Chemistry_Notes>  (162) 
This compound has an ester and may undergo hydrolysis at high or low pH.

>  <s_lp_Force_Field>  (162) 
OPLS3e

>  <r_lp_Energy>  (162) 
273.112

>  <b_lp_Chiralities_Consistent>  (162) 
0

>  <s_lp_Variant>  (162) 
48:0-2

>  <s_i_glide_gridfile>  (162) 
pfpi4k_grid

>  <i_i_glide_lignum>  (162) 
23

>  <i_i_glide_rotatable_bonds>  (162) 
2

>  <r_i_docking_score>  (162) 
-2.06075

>  <r_i_glide_ligand_efficiency>  (162) 
-0.0664758

>  <r_i_glide_ligand_efficiency_sa>  (162) 
-0.208826

>  <r_i_glide_ligand_efficiency_ln>  (162) 
-0.464762

>  <r_i_glide_gscore>  (162) 
-2.06075

>  <r_i_glide_lipo>  (162) 
-0.468992

>  <r_i_glide_hbond>  (162) 
-0.153316

>  <r_i_glide_metal>  (162) 
-0

>  <r_i_glide_rewards>  (162) 
-0.46901

>  <r_i_glide_evdw>  (162) 
3.46945

>  <r_i_glide_ecoul>  (162) 
-10.7604

>  <r_i_glide_erotb>  (162) 
0

>  <r_i_glide_esite>  (162) 
-0.0444691

>  <r_i_glide_emodel>  (162) 
-6.20358

>  <r_i_glide_energy>  (162) 
-7.29094

>  <r_i_glide_einternal>  (162) 
1.29542

>  <r_i_glide_intrahb_reward>  (162) 
-0

>  <i_i_glide_confnum>  (162) 
1

>  <i_i_glide_posenum>  (162) 
4

>  <r_i_glide_eff_state_penalty>  (162) 
0

>  <ligand_id>  (162) 
48

>  <original_smiles>  (162) 
CC12CC3OC3CC1C1(C)C(=O)C=CC3(O)C4(OC1(C)C)C(=O)OC(C)(C)C3(O)CC24

>  <smiles>  (162) 
[H]OC12C([H])=C([H])C(=O)C3(C([H])([H])[H])C4([H])C([H])([H])C5([H])OC5([H])C([H])([H])C4(C([H])([H])[H])C4([H])C([H])([H])C1(O[H])C(C([H])([H])[H])(C([H])([H])[H])OC(=O)C24OC3(C([H])([H])[H])C([H])([H])[H]

$$$$
49:0:0
     RDKit          3D

 67 72  0  0  1  0  0  0  0  0999 V2000
    1.1839   -2.4017    3.2942 C   0  0  0  0  0  0  0  0  0  0  0  0
    2.4514   -3.1624    2.7762 C   0  0  2  0  0  0  0  0  0  0  0  0
    1.9532   -4.6493    2.6416 C   0  0  0  0  0  0  0  0  0  0  0  0
    1.6556   -5.3913    3.9649 C   0  0  0  0  0  0  0  0  0  0  0  0
    2.7774   -5.2383    4.9855 C   0  0  1  0  0  0  0  0  0  0  0  0
    3.8986   -5.9926    4.5572 O   0  0  0  0  0  0  0  0  0  0  0  0
    3.1638   -3.7684    5.1851 C   0  0  0  0  0  0  0  0  0  0  0  0
    3.5295   -3.0490    3.8656 C   0  0  2  0  0  0  0  0  0  0  0  0
    3.9679   -1.5871    4.1245 C   0  0  0  0  0  0  0  0  0  0  0  0
    5.4237   -1.3131    3.7785 C   0  0  0  0  0  0  0  0  0  0  0  0
    6.0231   -1.1218    2.3608 C   0  0  2  0  0  0  0  0  0  0  0  0
    5.3166   -0.4383    1.1835 C   0  0  2  0  0  0  0  0  0  0  0  0
    3.9114    0.0376    1.3215 C   0  0  0  0  0  0  0  0  0  0  0  0
    2.7788   -1.0060    1.2548 C   0  0  0  0  0  0  0  0  0  0  0  0
    2.9538   -2.5561    1.3728 C   0  0  1  0  0  0  0  0  0  0  0  0
    3.9819   -3.3488    0.3625 C   0  0  1  0  0  0  0  0  0  0  0  0
    3.1514   -4.2470   -0.5692 C   0  0  0  0  0  0  0  0  0  0  0  0
    2.3769   -3.4952   -1.6610 C   0  0  0  0  0  0  0  0  0  0  0  0
    3.3025   -2.5972   -2.5145 C   0  0  1  0  0  0  0  0  0  0  0  0
    2.5776   -1.7644   -3.3551 O   0  0  0  0  0  0  0  0  0  0  0  0
    4.1743   -1.6640   -1.6707 C   0  0  0  0  0  0  0  0  0  0  0  0
    4.9298   -2.4626   -0.5905 C   0  0  2  0  0  0  0  0  0  0  0  0
    5.9335   -3.3165   -1.4534 C   0  0  0  0  0  0  0  0  0  0  0  0
    5.7921   -1.5462    0.2442 C   0  0  2  0  0  0  0  0  0  0  0  0
    6.4839   -2.2276    1.4029 C   0  0  2  0  0  0  0  0  0  0  0  0
    6.2547   -3.6919    1.7022 C   0  0  0  0  0  0  0  0  0  0  0  0
    4.9773   -4.3140    1.0984 C   0  0  0  0  0  0  0  0  0  0  0  0
    0.4686   -2.2702    2.4999 H   0  0  0  0  0  0  0  0  0  0  0  0
    1.3799   -1.4196    3.6904 H   0  0  0  0  0  0  0  0  0  0  0  0
    0.6827   -2.9053    4.1170 H   0  0  0  0  0  0  0  0  0  0  0  0
    1.0278   -4.6743    2.0769 H   0  0  0  0  0  0  0  0  0  0  0  0
    2.6211   -5.3033    2.0839 H   0  0  0  0  0  0  0  0  0  0  0  0
    0.7197   -5.0234    4.3847 H   0  0  0  0  0  0  0  0  0  0  0  0
    1.4648   -6.4450    3.7511 H   0  0  0  0  0  0  0  0  0  0  0  0
    2.4457   -5.6499    5.9329 H   0  0  0  0  0  0  0  0  0  0  0  0
    3.6562   -6.8891    4.5087 H   0  0  0  0  0  0  0  0  0  0  0  0
    2.3396   -3.2374    5.6641 H   0  0  0  0  0  0  0  0  0  0  0  0
    3.9984   -3.7134    5.8778 H   0  0  0  0  0  0  0  0  0  0  0  0
    4.4012   -3.5967    3.5418 H   0  0  0  0  0  0  0  0  0  0  0  0
    3.3236   -0.8185    3.7157 H   0  0  0  0  0  0  0  0  0  0  0  0
    3.8897   -1.4059    5.1954 H   0  0  0  0  0  0  0  0  0  0  0  0
    5.7163   -0.4293    4.3653 H   0  0  0  0  0  0  0  0  0  0  0  0
    5.9081   -2.1604    4.2674 H   0  0  0  0  0  0  0  0  0  0  0  0
    6.9441   -0.5821    2.4981 H   0  0  0  0  0  0  0  0  0  0  0  0
    5.9145    0.4197    0.9013 H   0  0  0  0  0  0  0  0  0  0  0  0
    3.8217    0.6529    2.2289 H   0  0  0  0  0  0  0  0  0  0  0  0
    3.7359    0.7528    0.5157 H   0  0  0  0  0  0  0  0  0  0  0  0
    1.9765   -0.5974    1.8658 H   0  0  0  0  0  0  0  0  0  0  0  0
    2.3742   -0.8313    0.2842 H   0  0  0  0  0  0  0  0  0  0  0  0
    2.0251   -2.7715    0.8714 H   0  0  0  0  0  0  0  0  0  0  0  0
    3.7989   -4.9565   -1.0724 H   0  0  0  0  0  0  0  0  0  0  0  0
    2.4515   -4.8645   -0.0115 H   0  0  0  0  0  0  0  0  0  0  0  0
    1.9223   -4.2144   -2.3414 H   0  0  0  0  0  0  0  0  0  0  0  0
    1.5243   -2.9925   -1.2335 H   0  0  0  0  0  0  0  0  0  0  0  0
    3.9169   -3.2159   -3.1739 H   0  0  0  0  0  0  0  0  0  0  0  0
    1.9454   -1.3391   -2.7705 H   0  0  0  0  0  0  0  0  0  0  0  0
    4.8783   -1.1543   -2.3316 H   0  0  0  0  0  0  0  0  0  0  0  0
    3.6018   -0.8316   -1.2773 H   0  0  0  0  0  0  0  0  0  0  0  0
    6.5113   -2.6867   -2.1253 H   0  0  0  0  0  0  0  0  0  0  0  0
    5.4648   -4.0668   -2.0740 H   0  0  0  0  0  0  0  0  0  0  0  0
    6.6682   -3.8389   -0.8620 H   0  0  0  0  0  0  0  0  0  0  0  0
    6.5417   -1.0985   -0.3926 H   0  0  0  0  0  0  0  0  0  0  0  0
    7.5559   -2.0878    1.2012 H   0  0  0  0  0  0  0  0  0  0  0  0
    7.1246   -4.2804    1.3633 H   0  0  0  0  0  0  0  0  0  0  0  0
    6.2256   -3.8730    2.7730 H   0  0  0  0  0  0  0  0  0  0  0  0
    4.5311   -4.9024    1.8838 H   0  0  0  0  0  0  0  0  0  0  0  0
    5.3280   -5.0946    0.4198 H   0  0  0  0  0  0  0  0  0  0  0  0
  2  1  1  1
  1 28  1  0
  1 29  1  0
  1 30  1  0
  2  8  1  0
  2 15  1  0
  2  3  1  0
  3  4  1  0
  3 31  1  0
  3 32  1  0
  4  5  1  0
  4 33  1  0
  4 34  1  0
  5  6  1  0
  5  7  1  0
  5 35  1  1
  6 36  1  0
  7  8  1  0
  7 37  1  0
  7 38  1  0
  8  9  1  0
  8 39  1  6
  9 10  1  0
  9 40  1  0
  9 41  1  0
 10 11  1  0
 10 42  1  0
 10 43  1  0
 11 25  1  0
 11 12  1  0
 11 44  1  1
 12 24  1  0
 12 13  1  0
 12 45  1  6
 13 14  1  0
 13 46  1  0
 13 47  1  0
 14 15  1  0
 14 48  1  0
 14 49  1  0
 15 16  1  0
 15 50  1  6
 16 22  1  0
 16 27  1  1
 16 17  1  0
 17 18  1  0
 17 51  1  0
 17 52  1  0
 18 19  1  0
 18 53  1  0
 18 54  1  0
 19 20  1  0
 19 21  1  0
 19 55  1  6
 20 56  1  0
 21 22  1  0
 21 57  1  0
 21 58  1  0
 22 23  1  6
 22 24  1  0
 23 59  1  0
 23 60  1  0
 23 61  1  0
 24 25  1  0
 24 62  1  6
 25 26  1  0
 25 63  1  6
 26 27  1  0
 26 64  1  0
 26 65  1  0
 27 66  1  0
 27 67  1  0
M  END
>  <i_m_ct_stereo_status>  (163) 
1

>  <s_m_source_file>  (163) 
/var/tmp/pbs.5076255.sched01/tmpbrsd6n1o/39u_ie0p0h.sdf

>  <i_m_source_file_index>  (163) 
24

>  <i_lp_mmshare_version>  (163) 
48012

>  <i_f3d_flags>  (163) 
0

>  <s_epik_input>  (163) 
W0NIMl0xW0NIMl1bQ0BASF0oW09IXSlbQ0gyXVtDQEBIXShbQ0BAXTEoW0NIM10pW0NAQEhdMltDQEBdMzQ1KVtDSDJdW0NIMl1bQ0BASF02W0NASF0oW0NIMl1bQ0gyXTIpW0NAQEhdKFtDQEBIXTZbQ0gyXVtDSDJdNSlbQ0BdNChbQ0gzXSlbQ0gyXVtDQEhdKFtPSF0pW0NIMl1bQ0gyXTM=

>  <s_epik_cmdline>  (163) 
J2VwaWtfcHl0aG9uJywgJy1waHQnLCAnMi4wJywgJy1waCcsICc3LjAnLCAnLXRuJywgJzgnLCAnLW1hJywgJzIwMCcsICctaW1hZScsICc8aW5maWxlLm1hZT4nLCAnLW9tYWUnLCAnPG91dGZpbGUubWFlPic=

>  <r_lp_tautomer_probability>  (163) 
1

>  <r_epik_Ionization_Penalty>  (163) 
6.00589e-06

>  <r_epik_Ionization_Penalty_Charging>  (163) 
0

>  <r_epik_Ionization_Penalty_Neutral>  (163) 
6.00589e-06

>  <r_epik_State_Penalty>  (163) 
-0

>  <r_epik_Charging_Adjusted_Penalty>  (163) 
0

>  <i_epik_Tot_Q>  (163) 
0

>  <i_epik_Tot_abs_Q>  (163) 
0

>  <s_lp_Force_Field>  (163) 
OPLS3e

>  <r_lp_Energy>  (163) 
149.77

>  <b_lp_Chiralities_Consistent>  (163) 
1

>  <s_lp_Variant>  (163) 
49:0-1

>  <s_i_glide_gridfile>  (163) 
pfpi4k_grid

>  <i_i_glide_lignum>  (163) 
24

>  <i_i_glide_rotatable_bonds>  (163) 
2

>  <r_i_docking_score>  (163) 
-2.7648

>  <r_i_glide_ligand_efficiency>  (163) 
-0.1024

>  <r_i_glide_ligand_efficiency_sa>  (163) 
-0.3072

>  <r_i_glide_ligand_efficiency_ln>  (163) 
-0.643601

>  <r_i_glide_gscore>  (163) 
-2.7648

>  <r_i_glide_lipo>  (163) 
-0.906413

>  <r_i_glide_hbond>  (163) 
-0.0565109

>  <r_i_glide_metal>  (163) 
-0

>  <r_i_glide_rewards>  (163) 
-0.868746

>  <r_i_glide_evdw>  (163) 
-13.1424

>  <r_i_glide_ecoul>  (163) 
-1.8401

>  <r_i_glide_erotb>  (163) 
0

>  <r_i_glide_esite>  (163) 
0

>  <r_i_glide_emodel>  (163) 
-14.1568

>  <r_i_glide_energy>  (163) 
-14.9825

>  <r_i_glide_einternal>  (163) 
0.332452

>  <r_i_glide_intrahb_reward>  (163) 
-0

>  <i_i_glide_confnum>  (163) 
1

>  <i_i_glide_posenum>  (163) 
5

>  <r_i_glide_eff_state_penalty>  (163) 
0

>  <ligand_id>  (163) 
49

>  <original_smiles>  (163) 
CC12CCC(O)CC1CCC1C3CCC2C24CCC(O)CC2(C)C3C1CC4

>  <smiles>  (163) 
[H]OC1([H])C([H])([H])C([H])([H])C2(C([H])([H])[H])C([H])(C([H])([H])C([H])([H])C3([H])C4([H])C([H])([H])C([H])([H])C2([H])C25C([H])([H])C([H])([H])C([H])(O[H])C([H])([H])C2(C([H])([H])[H])C4([H])C3([H])C([H])([H])C5([H])[H])C1([H])[H]

$$$$
49:0:1
     RDKit          3D

 67 72  0  0  1  0  0  0  0  0999 V2000
    0.9952   -1.6023    3.5540 C   0  0  0  0  0  0  0  0  0  0  0  0
    2.1519   -2.6169    3.2099 C   0  0  2  0  0  0  0  0  0  0  0  0
    1.4601   -4.0198    3.3504 C   0  0  0  0  0  0  0  0  0  0  0  0
    1.0441   -4.4474    4.7690 C   0  0  0  0  0  0  0  0  0  0  0  0
    2.1815   -4.2708    5.7700 C   0  0  1  0  0  0  0  0  0  0  0  0
    3.1824   -5.2358    5.5088 O   0  0  0  0  0  0  0  0  0  0  0  0
    2.7788   -2.8548    5.7032 C   0  0  0  0  0  0  0  0  0  0  0  0
    3.2553   -2.4547    4.2832 C   0  0  2  0  0  0  0  0  0  0  0  0
    3.9119   -1.0523    4.2822 C   0  0  0  0  0  0  0  0  0  0  0  0
    5.4135   -1.0376    3.9441 C   0  0  0  0  0  0  0  0  0  0  0  0
    5.9553   -1.1921    2.4973 C   0  0  2  0  0  0  0  0  0  0  0  0
    5.3453   -0.6581    1.2105 C   0  0  2  0  0  0  0  0  0  0  0  0
    4.0151    0.0090    1.2144 C   0  0  0  0  0  0  0  0  0  0  0  0
    2.7556   -0.8596    1.3195 C   0  0  0  0  0  0  0  0  0  0  0  0
    2.7092   -2.3717    1.7174 C   0  0  1  0  0  0  0  0  0  0  0  0
    3.6161   -3.4641    0.8905 C   0  0  1  0  0  0  0  0  0  0  0  0
    2.6704   -4.4168    0.0913 C   0  0  0  0  0  0  0  0  0  0  0  0
    2.0055   -3.7810   -1.1518 C   0  0  0  0  0  0  0  0  0  0  0  0
    2.9746   -3.0729   -2.1234 C   0  0  1  0  0  0  0  0  0  0  0  0
    2.2487   -2.2697   -3.0159 O   0  0  0  0  0  0  0  0  0  0  0  0
    3.9977   -2.1870   -1.4102 C   0  0  0  0  0  0  0  0  0  0  0  0
    4.6462   -2.8979   -0.1920 C   0  0  2  0  0  0  0  0  0  0  0  0
    5.5143   -4.0290   -0.8572 C   0  0  0  0  0  0  0  0  0  0  0  0
    5.6489   -1.9772    0.4991 C   0  0  2  0  0  0  0  0  0  0  0  0
    6.2439   -2.5159    1.7941 C   0  0  2  0  0  0  0  0  0  0  0  0
    5.7939   -3.8530    2.3558 C   0  0  0  0  0  0  0  0  0  0  0  0
    4.4614   -4.3935    1.8300 C   0  0  0  0  0  0  0  0  0  0  0  0
    0.2688   -1.5377    2.7575 H   0  0  0  0  0  0  0  0  0  0  0  0
    1.3299   -0.5905    3.7613 H   0  0  0  0  0  0  0  0  0  0  0  0
    0.4444   -1.8658    4.4497 H   0  0  0  0  0  0  0  0  0  0  0  0
    0.5581   -4.0067    2.7691 H   0  0  0  0  0  0  0  0  0  0  0  0
    2.0253   -4.8424    2.9290 H   0  0  0  0  0  0  0  0  0  0  0  0
    0.1712   -3.8802    5.0862 H   0  0  0  0  0  0  0  0  0  0  0  0
    0.7042   -5.4825    4.7384 H   0  0  0  0  0  0  0  0  0  0  0  0
    1.7912   -4.4494    6.7732 H   0  0  0  0  0  0  0  0  0  0  0  0
    2.8030   -6.0912    5.6168 H   0  0  0  0  0  0  0  0  0  0  0  0
    2.0364   -2.1384    6.0540 H   0  0  0  0  0  0  0  0  0  0  0  0
    3.6124   -2.7958    6.3998 H   0  0  0  0  0  0  0  0  0  0  0  0
    4.0268   -3.1751    4.0874 H   0  0  0  0  0  0  0  0  0  0  0  0
    3.3818   -0.3000    3.7081 H   0  0  0  0  0  0  0  0  0  0  0  0
    3.8503   -0.6692    5.2983 H   0  0  0  0  0  0  0  0  0  0  0  0
    5.7960   -0.0911    4.3412 H   0  0  0  0  0  0  0  0  0  0  0  0
    5.8180   -1.8115    4.5956 H   0  0  0  0  0  0  0  0  0  0  0  0
    6.9202   -0.7112    2.4933 H   0  0  0  0  0  0  0  0  0  0  0  0
    6.0685    0.0483    0.8092 H   0  0  0  0  0  0  0  0  0  0  0  0
    3.9982    0.7919    1.9734 H   0  0  0  0  0  0  0  0  0  0  0  0
    3.9515    0.5575    0.2771 H   0  0  0  0  0  0  0  0  0  0  0  0
    2.0357   -0.2411    1.8485 H   0  0  0  0  0  0  0  0  0  0  0  0
    2.3244   -0.7954    0.3506 H   0  0  0  0  0  0  0  0  0  0  0  0
    1.7588   -2.5517    1.2422 H   0  0  0  0  0  0  0  0  0  0  0  0
    3.1996   -5.3016   -0.2500 H   0  0  0  0  0  0  0  0  0  0  0  0
    1.8973   -4.8189    0.7426 H   0  0  0  0  0  0  0  0  0  0  0  0
    1.4238   -4.5392   -1.6875 H   0  0  0  0  0  0  0  0  0  0  0  0
    1.2556   -3.0546   -0.8084 H   0  0  0  0  0  0  0  0  0  0  0  0
    3.4885   -3.8413   -2.6965 H   0  0  0  0  0  0  0  0  0  0  0  0
    1.7154   -1.6832   -2.4820 H   0  0  0  0  0  0  0  0  0  0  0  0
    4.7721   -1.9244   -2.1349 H   0  0  0  0  0  0  0  0  0  0  0  0
    3.5723   -1.2275   -1.1577 H   0  0  0  0  0  0  0  0  0  0  0  0
    6.1847   -3.6167   -1.6113 H   0  0  0  0  0  0  0  0  0  0  0  0
    4.9296   -4.7900   -1.3598 H   0  0  0  0  0  0  0  0  0  0  0  0
    6.1621   -4.5487   -0.1601 H   0  0  0  0  0  0  0  0  0  0  0  0
    6.4765   -1.7725   -0.1744 H   0  0  0  0  0  0  0  0  0  0  0  0
    7.3145   -2.5653    1.5824 H   0  0  0  0  0  0  0  0  0  0  0  0
    6.5642   -4.5910    2.1166 H   0  0  0  0  0  0  0  0  0  0  0  0
    5.8128   -3.8300    3.4388 H   0  0  0  0  0  0  0  0  0  0  0  0
    3.9490   -4.7586    2.6957 H   0  0  0  0  0  0  0  0  0  0  0  0
    4.6996   -5.3263    1.3090 H   0  0  0  0  0  0  0  0  0  0  0  0
  2  1  1  1
  1 28  1  0
  1 29  1  0
  1 30  1  0
  2  8  1  0
  2 15  1  0
  2  3  1  0
  3  4  1  0
  3 31  1  0
  3 32  1  0
  4  5  1  0
  4 33  1  0
  4 34  1  0
  5  6  1  0
  5  7  1  0
  5 35  1  1
  6 36  1  0
  7  8  1  0
  7 37  1  0
  7 38  1  0
  8  9  1  0
  8 39  1  6
  9 10  1  0
  9 40  1  0
  9 41  1  0
 10 11  1  0
 10 42  1  0
 10 43  1  0
 11 25  1  0
 11 12  1  0
 11 44  1  1
 12 24  1  0
 12 13  1  0
 12 45  1  6
 13 14  1  0
 13 46  1  0
 13 47  1  0
 14 15  1  0
 14 48  1  0
 14 49  1  0
 15 16  1  0
 15 50  1  6
 16 22  1  0
 16 27  1  1
 16 17  1  0
 17 18  1  0
 17 51  1  0
 17 52  1  0
 18 19  1  0
 18 53  1  0
 18 54  1  0
 19 20  1  0
 19 21  1  0
 19 55  1  6
 20 56  1  0
 21 22  1  0
 21 57  1  0
 21 58  1  0
 22 23  1  6
 22 24  1  0
 23 59  1  0
 23 60  1  0
 23 61  1  0
 24 25  1  0
 24 62  1  6
 25 26  1  0
 25 63  1  6
 26 27  1  0
 26 64  1  0
 26 65  1  0
 27 66  1  0
 27 67  1  0
M  END
>  <i_m_ct_stereo_status>  (164) 
1

>  <s_m_source_file>  (164) 
/var/tmp/pbs.5076255.sched01/tmpbrsd6n1o/39u_ie0p0h.sdf

>  <i_m_source_file_index>  (164) 
24

>  <i_lp_mmshare_version>  (164) 
48012

>  <i_f3d_flags>  (164) 
0

>  <s_epik_input>  (164) 
W0NIMl0xW0NIMl1bQ0BASF0oW09IXSlbQ0gyXVtDQEBIXShbQ0BAXTEoW0NIM10pW0NAQEhdMltDQEBdMzQ1KVtDSDJdW0NIMl1bQ0BASF02W0NASF0oW0NIMl1bQ0gyXTIpW0NAQEhdKFtDQEBIXTZbQ0gyXVtDSDJdNSlbQ0BdNChbQ0gzXSlbQ0gyXVtDQEhdKFtPSF0pW0NIMl1bQ0gyXTM=

>  <s_epik_cmdline>  (164) 
J2VwaWtfcHl0aG9uJywgJy1waHQnLCAnMi4wJywgJy1waCcsICc3LjAnLCAnLXRuJywgJzgnLCAnLW1hJywgJzIwMCcsICctaW1hZScsICc8aW5maWxlLm1hZT4nLCAnLW9tYWUnLCAnPG91dGZpbGUubWFlPic=

>  <r_lp_tautomer_probability>  (164) 
1

>  <r_epik_Ionization_Penalty>  (164) 
6.00589e-06

>  <r_epik_Ionization_Penalty_Charging>  (164) 
0

>  <r_epik_Ionization_Penalty_Neutral>  (164) 
6.00589e-06

>  <r_epik_State_Penalty>  (164) 
-0

>  <r_epik_Charging_Adjusted_Penalty>  (164) 
0

>  <i_epik_Tot_Q>  (164) 
0

>  <i_epik_Tot_abs_Q>  (164) 
0

>  <s_lp_Force_Field>  (164) 
OPLS3e

>  <r_lp_Energy>  (164) 
149.77

>  <b_lp_Chiralities_Consistent>  (164) 
1

>  <s_lp_Variant>  (164) 
49:0-1

>  <s_i_glide_gridfile>  (164) 
pfpi4k_grid

>  <i_i_glide_lignum>  (164) 
24

>  <i_i_glide_rotatable_bonds>  (164) 
2

>  <r_i_docking_score>  (164) 
-2.63775

>  <r_i_glide_ligand_efficiency>  (164) 
-0.0976946

>  <r_i_glide_ligand_efficiency_sa>  (164) 
-0.293084

>  <r_i_glide_ligand_efficiency_ln>  (164) 
-0.614025

>  <r_i_glide_gscore>  (164) 
-2.63775

>  <r_i_glide_lipo>  (164) 
-0.569609

>  <r_i_glide_hbond>  (164) 
-0.16

>  <r_i_glide_metal>  (164) 
-0

>  <r_i_glide_rewards>  (164) 
-0.868746

>  <r_i_glide_evdw>  (164) 
-14.169

>  <r_i_glide_ecoul>  (164) 
-2.20631

>  <r_i_glide_erotb>  (164) 
0

>  <r_i_glide_esite>  (164) 
0

>  <r_i_glide_emodel>  (164) 
-15.4589

>  <r_i_glide_energy>  (164) 
-16.3753

>  <r_i_glide_einternal>  (164) 
0.367341

>  <r_i_glide_intrahb_reward>  (164) 
-0

>  <i_i_glide_confnum>  (164) 
2

>  <i_i_glide_posenum>  (164) 
33

>  <r_i_glide_eff_state_penalty>  (164) 
0

>  <ligand_id>  (164) 
49

>  <original_smiles>  (164) 
CC12CCC(O)CC1CCC1C3CCC2C24CCC(O)CC2(C)C3C1CC4

>  <smiles>  (164) 
[H]OC1([H])C([H])([H])C([H])([H])C2(C([H])([H])[H])C([H])(C([H])([H])C([H])([H])C3([H])C4([H])C([H])([H])C([H])([H])C2([H])C25C([H])([H])C([H])([H])C([H])(O[H])C([H])([H])C2(C([H])([H])[H])C4([H])C3([H])C([H])([H])C5([H])[H])C1([H])[H]

$$$$
49:0:2
     RDKit          3D

 67 72  0  0  1  0  0  0  0  0999 V2000
    1.0055   -1.5868    3.5460 C   0  0  0  0  0  0  0  0  0  0  0  0
    2.1565   -2.6126    3.2112 C   0  0  2  0  0  0  0  0  0  0  0  0
    1.4524   -3.9992    3.3506 C   0  0  0  0  0  0  0  0  0  0  0  0
    1.0421   -4.4243    4.7708 C   0  0  0  0  0  0  0  0  0  0  0  0
    2.1687   -4.2408    5.7683 C   0  0  1  0  0  0  0  0  0  0  0  0
    3.1895   -5.2107    5.5291 O   0  0  0  0  0  0  0  0  0  0  0  0
    2.7833   -2.8317    5.7014 C   0  0  0  0  0  0  0  0  0  0  0  0
    3.2490   -2.4380    4.2771 C   0  0  2  0  0  0  0  0  0  0  0  0
    3.9156   -1.0391    4.2696 C   0  0  0  0  0  0  0  0  0  0  0  0
    5.4043   -1.0229    3.9276 C   0  0  0  0  0  0  0  0  0  0  0  0
    5.9688   -1.1771    2.4882 C   0  0  2  0  0  0  0  0  0  0  0  0
    5.3379   -0.6675    1.1880 C   0  0  2  0  0  0  0  0  0  0  0  0
    4.0223    0.0050    1.1982 C   0  0  0  0  0  0  0  0  0  0  0  0
    2.7548   -0.8607    1.3029 C   0  0  0  0  0  0  0  0  0  0  0  0
    2.7042   -2.3606    1.7129 C   0  0  1  0  0  0  0  0  0  0  0  0
    3.6132   -3.4631    0.8968 C   0  0  1  0  0  0  0  0  0  0  0  0
    2.6607   -4.4091    0.0954 C   0  0  0  0  0  0  0  0  0  0  0  0
    1.9965   -3.7732   -1.1433 C   0  0  0  0  0  0  0  0  0  0  0  0
    2.9810   -3.0889   -2.1139 C   0  0  1  0  0  0  0  0  0  0  0  0
    2.3013   -2.2711   -3.0261 O   0  0  0  0  0  0  0  0  0  0  0  0
    4.0072   -2.2028   -1.4090 C   0  0  0  0  0  0  0  0  0  0  0  0
    4.6467   -2.8989   -0.1927 C   0  0  2  0  0  0  0  0  0  0  0  0
    5.5081   -4.0410   -0.8526 C   0  0  0  0  0  0  0  0  0  0  0  0
    5.6561   -1.9933    0.4904 C   0  0  2  0  0  0  0  0  0  0  0  0
    6.2547   -2.5165    1.7771 C   0  0  2  0  0  0  0  0  0  0  0  0
    5.8094   -3.8483    2.3602 C   0  0  0  0  0  0  0  0  0  0  0  0
    4.4623   -4.3849    1.8323 C   0  0  0  0  0  0  0  0  0  0  0  0
    0.2979   -1.5216    2.7390 H   0  0  0  0  0  0  0  0  0  0  0  0
    1.3374   -0.5745    3.7540 H   0  0  0  0  0  0  0  0  0  0  0  0
    0.4420   -1.8469    4.4425 H   0  0  0  0  0  0  0  0  0  0  0  0
    0.5507   -3.9944    2.7827 H   0  0  0  0  0  0  0  0  0  0  0  0
    2.0097   -4.8277    2.9371 H   0  0  0  0  0  0  0  0  0  0  0  0
    0.1711   -3.8589    5.0955 H   0  0  0  0  0  0  0  0  0  0  0  0
    0.7106   -5.4616    4.7543 H   0  0  0  0  0  0  0  0  0  0  0  0
    1.7927   -4.4223    6.7782 H   0  0  0  0  0  0  0  0  0  0  0  0
    3.8126   -5.1668    6.1838 H   0  0  0  0  0  0  0  0  0  0  0  0
    2.0398   -2.1097    6.0492 H   0  0  0  0  0  0  0  0  0  0  0  0
    3.6137   -2.7605    6.3963 H   0  0  0  0  0  0  0  0  0  0  0  0
    4.0250   -3.1609    4.0833 H   0  0  0  0  0  0  0  0  0  0  0  0
    3.3863   -0.2887    3.6940 H   0  0  0  0  0  0  0  0  0  0  0  0
    3.8567   -0.6474    5.2825 H   0  0  0  0  0  0  0  0  0  0  0  0
    5.7993   -0.0793    4.3229 H   0  0  0  0  0  0  0  0  0  0  0  0
    5.7979   -1.8018    4.5869 H   0  0  0  0  0  0  0  0  0  0  0  0
    6.9173   -0.6500    2.4932 H   0  0  0  0  0  0  0  0  0  0  0  0
    6.0637    0.0442    0.7878 H   0  0  0  0  0  0  0  0  0  0  0  0
    4.0003    0.7917    1.9529 H   0  0  0  0  0  0  0  0  0  0  0  0
    3.9537    0.5461    0.2618 H   0  0  0  0  0  0  0  0  0  0  0  0
    2.0369   -0.2373    1.8245 H   0  0  0  0  0  0  0  0  0  0  0  0
    2.3269   -0.7981    0.3336 H   0  0  0  0  0  0  0  0  0  0  0  0
    1.7526   -2.5517    1.2409 H   0  0  0  0  0  0  0  0  0  0  0  0
    3.1881   -5.3029   -0.2490 H   0  0  0  0  0  0  0  0  0  0  0  0
    1.8887   -4.8155    0.7440 H   0  0  0  0  0  0  0  0  0  0  0  0
    1.4152   -4.5245   -1.6764 H   0  0  0  0  0  0  0  0  0  0  0  0
    1.2611   -3.0571   -0.8095 H   0  0  0  0  0  0  0  0  0  0  0  0
    3.4895   -3.8538   -2.6934 H   0  0  0  0  0  0  0  0  0  0  0  0
    1.7322   -1.7091   -2.5177 H   0  0  0  0  0  0  0  0  0  0  0  0
    4.7750   -1.9392   -2.1374 H   0  0  0  0  0  0  0  0  0  0  0  0
    3.5809   -1.2376   -1.1664 H   0  0  0  0  0  0  0  0  0  0  0  0
    6.1775   -3.6385   -1.6136 H   0  0  0  0  0  0  0  0  0  0  0  0
    4.9244   -4.8057   -1.3556 H   0  0  0  0  0  0  0  0  0  0  0  0
    6.1567   -4.5630   -0.1610 H   0  0  0  0  0  0  0  0  0  0  0  0
    6.4771   -1.7819   -0.1930 H   0  0  0  0  0  0  0  0  0  0  0  0
    7.3430   -2.5712    1.5880 H   0  0  0  0  0  0  0  0  0  0  0  0
    6.5631   -4.5984    2.1193 H   0  0  0  0  0  0  0  0  0  0  0  0
    5.8161   -3.8235    3.4396 H   0  0  0  0  0  0  0  0  0  0  0  0
    3.9426   -4.7622    2.6999 H   0  0  0  0  0  0  0  0  0  0  0  0
    4.6888   -5.3208    1.3210 H   0  0  0  0  0  0  0  0  0  0  0  0
  2  1  1  1
  1 28  1  0
  1 29  1  0
  1 30  1  0
  2  8  1  0
  2 15  1  0
  2  3  1  0
  3  4  1  0
  3 31  1  0
  3 32  1  0
  4  5  1  0
  4 33  1  0
  4 34  1  0
  5  6  1  0
  5  7  1  0
  5 35  1  1
  6 36  1  0
  7  8  1  0
  7 37  1  0
  7 38  1  0
  8  9  1  0
  8 39  1  6
  9 10  1  0
  9 40  1  0
  9 41  1  0
 10 11  1  0
 10 42  1  0
 10 43  1  0
 11 25  1  0
 11 12  1  0
 11 44  1  1
 12 24  1  0
 12 13  1  0
 12 45  1  6
 13 14  1  0
 13 46  1  0
 13 47  1  0
 14 15  1  0
 14 48  1  0
 14 49  1  0
 15 16  1  0
 15 50  1  6
 16 22  1  0
 16 27  1  1
 16 17  1  0
 17 18  1  0
 17 51  1  0
 17 52  1  0
 18 19  1  0
 18 53  1  0
 18 54  1  0
 19 20  1  0
 19 21  1  0
 19 55  1  6
 20 56  1  0
 21 22  1  0
 21 57  1  0
 21 58  1  0
 22 23  1  6
 22 24  1  0
 23 59  1  0
 23 60  1  0
 23 61  1  0
 24 25  1  0
 24 62  1  6
 25 26  1  0
 25 63  1  6
 26 27  1  0
 26 64  1  0
 26 65  1  0
 27 66  1  0
 27 67  1  0
M  END
>  <i_m_ct_stereo_status>  (165) 
1

>  <s_m_source_file>  (165) 
/var/tmp/pbs.5076255.sched01/tmpbrsd6n1o/39u_ie0p0h.sdf

>  <i_m_source_file_index>  (165) 
24

>  <i_lp_mmshare_version>  (165) 
48012

>  <i_f3d_flags>  (165) 
0

>  <s_epik_input>  (165) 
W0NIMl0xW0NIMl1bQ0BASF0oW09IXSlbQ0gyXVtDQEBIXShbQ0BAXTEoW0NIM10pW0NAQEhdMltDQEBdMzQ1KVtDSDJdW0NIMl1bQ0BASF02W0NASF0oW0NIMl1bQ0gyXTIpW0NAQEhdKFtDQEBIXTZbQ0gyXVtDSDJdNSlbQ0BdNChbQ0gzXSlbQ0gyXVtDQEhdKFtPSF0pW0NIMl1bQ0gyXTM=

>  <s_epik_cmdline>  (165) 
J2VwaWtfcHl0aG9uJywgJy1waHQnLCAnMi4wJywgJy1waCcsICc3LjAnLCAnLXRuJywgJzgnLCAnLW1hJywgJzIwMCcsICctaW1hZScsICc8aW5maWxlLm1hZT4nLCAnLW9tYWUnLCAnPG91dGZpbGUubWFlPic=

>  <r_lp_tautomer_probability>  (165) 
1

>  <r_epik_Ionization_Penalty>  (165) 
6.00589e-06

>  <r_epik_Ionization_Penalty_Charging>  (165) 
0

>  <r_epik_Ionization_Penalty_Neutral>  (165) 
6.00589e-06

>  <r_epik_State_Penalty>  (165) 
-0

>  <r_epik_Charging_Adjusted_Penalty>  (165) 
0

>  <i_epik_Tot_Q>  (165) 
0

>  <i_epik_Tot_abs_Q>  (165) 
0

>  <s_lp_Force_Field>  (165) 
OPLS3e

>  <r_lp_Energy>  (165) 
149.77

>  <b_lp_Chiralities_Consistent>  (165) 
1

>  <s_lp_Variant>  (165) 
49:0-1

>  <s_i_glide_gridfile>  (165) 
pfpi4k_grid

>  <i_i_glide_lignum>  (165) 
24

>  <i_i_glide_rotatable_bonds>  (165) 
2

>  <r_i_docking_score>  (165) 
-2.61144

>  <r_i_glide_ligand_efficiency>  (165) 
-0.0967202

>  <r_i_glide_ligand_efficiency_sa>  (165) 
-0.29016

>  <r_i_glide_ligand_efficiency_ln>  (165) 
-0.607901

>  <r_i_glide_gscore>  (165) 
-2.61144

>  <r_i_glide_lipo>  (165) 
-0.572219

>  <r_i_glide_hbond>  (165) 
-0.14717

>  <r_i_glide_metal>  (165) 
-0

>  <r_i_glide_rewards>  (165) 
-0.868746

>  <r_i_glide_evdw>  (165) 
-14.2234

>  <r_i_glide_ecoul>  (165) 
-2.08092

>  <r_i_glide_erotb>  (165) 
0

>  <r_i_glide_esite>  (165) 
0

>  <r_i_glide_emodel>  (165) 
-15.6123

>  <r_i_glide_energy>  (165) 
-16.3044

>  <r_i_glide_einternal>  (165) 
0.370025

>  <r_i_glide_intrahb_reward>  (165) 
-0

>  <i_i_glide_confnum>  (165) 
1

>  <i_i_glide_posenum>  (165) 
40

>  <r_i_glide_eff_state_penalty>  (165) 
0

>  <ligand_id>  (165) 
49

>  <original_smiles>  (165) 
CC12CCC(O)CC1CCC1C3CCC2C24CCC(O)CC2(C)C3C1CC4

>  <smiles>  (165) 
[H]OC1([H])C([H])([H])C([H])([H])C2(C([H])([H])[H])C([H])(C([H])([H])C([H])([H])C3([H])C4([H])C([H])([H])C([H])([H])C2([H])C25C([H])([H])C([H])([H])C([H])(O[H])C([H])([H])C2(C([H])([H])[H])C4([H])C3([H])C([H])([H])C5([H])[H])C1([H])[H]

$$$$
50:0:0
     RDKit          3D

 49 53  0  0  1  0  0  0  0  0999 V2000
    2.6880   -2.3720   -4.1933 C   0  0  0  0  0  0  0  0  0  0  0  0
    3.3788   -2.6465   -2.8792 C   0  0  0  0  0  0  0  0  0  0  0  0
    2.7018   -3.0609   -1.7975 C   0  0  0  0  0  0  0  0  0  0  0  0
    3.3148   -3.2874   -0.4268 C   0  0  1  0  0  0  0  0  0  0  0  0
    3.1738   -4.7605    0.0143 C   0  0  0  0  0  0  0  0  0  0  0  0
    3.4968   -4.8411    1.5066 C   0  0  1  0  0  0  0  0  0  0  0  0
    3.0974   -6.1061    2.2609 C   0  0  0  0  0  0  0  0  0  0  0  0
    1.7330   -6.6969    1.9120 C   0  0  0  0  0  0  0  0  0  0  0  0
    3.8967   -6.4975    3.2767 C   0  0  0  0  0  0  0  0  0  0  0  0
    3.6351   -7.4765    4.3344 C   0  0  0  0  0  0  0  0  0  0  0  0
    2.7825   -8.3630    4.3521 O   0  0  0  0  0  0  0  0  0  0  0  0
    4.6023   -7.2589    5.4857 C   0  0  0  0  0  0  0  0  0  0  0  0
    5.1944   -5.8663    5.1907 C   0  0  0  0  0  0  0  0  0  0  0  0
    5.1616   -5.7650    3.6617 C   0  0  2  0  0  0  0  0  0  0  0  0
    5.2041   -4.4306    3.1504 O   0  0  0  0  0  0  0  0  0  0  0  0
    4.9538   -4.4236    1.7431 C   0  0  1  0  0  0  0  0  0  0  0  0
    5.9247   -5.2267    1.0276 O   0  0  0  0  0  0  0  0  0  0  0  0
    6.7434   -4.0452    0.8987 C   0  0  0  0  0  0  0  0  0  0  0  0
    5.4970   -3.1525    1.0307 C   0  0  2  0  0  0  0  0  0  0  0  0
    5.6510   -1.9126    1.9207 C   0  0  0  0  0  0  0  0  0  0  0  0
    4.7654   -2.7294   -0.2943 C   0  0  1  0  0  0  0  0  0  0  0  0
    5.5509   -3.0006   -1.6010 C   0  0  0  0  0  0  0  0  0  0  0  0
    4.8696   -2.3877   -2.8353 C   0  0  0  0  0  0  0  0  0  0  0  0
    2.8710   -1.3512   -4.5241 H   0  0  0  0  0  0  0  0  0  0  0  0
    1.6109   -2.5145   -4.1151 H   0  0  0  0  0  0  0  0  0  0  0  0
    3.0490   -3.0574   -4.9569 H   0  0  0  0  0  0  0  0  0  0  0  0
    1.6373   -3.2264   -1.8697 H   0  0  0  0  0  0  0  0  0  0  0  0
    2.6882   -2.6870    0.2327 H   0  0  0  0  0  0  0  0  0  0  0  0
    2.1640   -5.1121   -0.1877 H   0  0  0  0  0  0  0  0  0  0  0  0
    3.8474   -5.4034   -0.5586 H   0  0  0  0  0  0  0  0  0  0  0  0
    2.8702   -4.0867    1.9868 H   0  0  0  0  0  0  0  0  0  0  0  0
    0.9986   -5.9101    1.7345 H   0  0  0  0  0  0  0  0  0  0  0  0
    1.3221   -7.3230    2.6975 H   0  0  0  0  0  0  0  0  0  0  0  0
    1.8040   -7.3060    1.0113 H   0  0  0  0  0  0  0  0  0  0  0  0
    4.1096   -7.3218    6.4560 H   0  0  0  0  0  0  0  0  0  0  0  0
    5.3721   -8.0291    5.4339 H   0  0  0  0  0  0  0  0  0  0  0  0
    4.5476   -5.1017    5.6284 H   0  0  0  0  0  0  0  0  0  0  0  0
    6.2004   -5.7340    5.5937 H   0  0  0  0  0  0  0  0  0  0  0  0
    5.9964   -6.3456    3.2597 H   0  0  0  0  0  0  0  0  0  0  0  0
    7.4470   -3.9521    1.7247 H   0  0  0  0  0  0  0  0  0  0  0  0
    7.2924   -4.0075   -0.0382 H   0  0  0  0  0  0  0  0  0  0  0  0
    6.2068   -1.1146    1.4246 H   0  0  0  0  0  0  0  0  0  0  0  0
    6.1886   -2.1462    2.8390 H   0  0  0  0  0  0  0  0  0  0  0  0
    4.6780   -1.5189    2.2182 H   0  0  0  0  0  0  0  0  0  0  0  0
    4.6499   -1.6438   -0.2795 H   0  0  0  0  0  0  0  0  0  0  0  0
    6.5645   -2.6012   -1.5457 H   0  0  0  0  0  0  0  0  0  0  0  0
    5.6378   -4.0772   -1.7559 H   0  0  0  0  0  0  0  0  0  0  0  0
    5.3247   -2.7910   -3.7387 H   0  0  0  0  0  0  0  0  0  0  0  0
    5.0088   -1.3064   -2.8365 H   0  0  0  0  0  0  0  0  0  0  0  0
  1  2  1  0
  1 24  1  0
  1 25  1  0
  1 26  1  0
  2 23  1  0
  2  3  2  0
  3  4  1  0
  3 27  1  0
  4 21  1  0
  4  5  1  0
  4 28  1  1
  5  6  1  0
  5 29  1  0
  5 30  1  0
  6 16  1  0
  6  7  1  0
  6 31  1  1
  7  8  1  0
  7  9  2  0
  8 32  1  0
  8 33  1  0
  8 34  1  0
  9 14  1  0
  9 10  1  0
 10 11  2  0
 10 12  1  0
 12 13  1  0
 12 35  1  0
 12 36  1  0
 13 14  1  0
 13 37  1  0
 13 38  1  0
 14 15  1  0
 14 39  1  6
 16 15  1  1
 16 19  1  0
 16 17  1  0
 17 18  1  0
 18 19  1  0
 18 40  1  0
 18 41  1  0
 19 20  1  1
 19 21  1  0
 20 42  1  0
 20 43  1  0
 20 44  1  0
 21 22  1  0
 21 45  1  1
 22 23  1  0
 22 46  1  0
 22 47  1  0
 23 48  1  0
 23 49  1  0
M  END
>  <i_m_ct_stereo_status>  (166) 
1

>  <s_m_source_file>  (166) 
/var/tmp/pbs.5076255.sched01/tmpbrsd6n1o/39u_ie0p0h.sdf

>  <i_m_source_file_index>  (166) 
25

>  <i_lp_mmshare_version>  (166) 
48012

>  <i_f3d_flags>  (166) 
0

>  <s_epik_input>  (166) 
W0NIM11DKD1bQ0hdMSlbQ0gyXVtDSDJdW0NASF0oW0NAQF0yKFtDSDJdTzMpW0NIM10pW0NAQEhdMVtDSDJdW0NASF0oW0NAXTIzNClDKFtDSDNdKT1DNVtDQEBIXShPNClbQ0gyXVtDSDJdQzU9Tw==

>  <s_epik_cmdline>  (166) 
J2VwaWtfcHl0aG9uJywgJy1waHQnLCAnMi4wJywgJy1waCcsICc3LjAnLCAnLXRuJywgJzgnLCAnLW1hJywgJzIwMCcsICctaW1hZScsICc8aW5maWxlLm1hZT4nLCAnLW9tYWUnLCAnPG91dGZpbGUubWFlPic=

>  <r_lp_tautomer_probability>  (166) 
1

>  <r_epik_Ionization_Penalty>  (166) 
3.05084e-13

>  <r_epik_Ionization_Penalty_Charging>  (166) 
0

>  <r_epik_Ionization_Penalty_Neutral>  (166) 
3.05084e-13

>  <r_epik_State_Penalty>  (166) 
-0

>  <r_epik_Charging_Adjusted_Penalty>  (166) 
0

>  <i_epik_Tot_Q>  (166) 
0

>  <i_epik_Tot_abs_Q>  (166) 
0

>  <s_lp_Force_Field>  (166) 
OPLS3e

>  <r_lp_Energy>  (166) 
25.4033

>  <b_lp_Chiralities_Consistent>  (166) 
1

>  <s_lp_Variant>  (166) 
50:0-1

>  <s_i_glide_gridfile>  (166) 
pfpi4k_grid

>  <i_i_glide_lignum>  (166) 
25

>  <i_i_glide_rotatable_bonds>  (166) 
0

>  <r_i_docking_score>  (166) 
-2.69492

>  <r_i_glide_ligand_efficiency>  (166) 
-0.117171

>  <r_i_glide_ligand_efficiency_sa>  (166) 
-0.333218

>  <r_i_glide_ligand_efficiency_ln>  (166) 
-0.651657

>  <r_i_glide_gscore>  (166) 
-2.69492

>  <r_i_glide_lipo>  (166) 
-0.529731

>  <r_i_glide_hbond>  (166) 
0

>  <r_i_glide_metal>  (166) 
-0

>  <r_i_glide_rewards>  (166) 
-1.30362

>  <r_i_glide_evdw>  (166) 
-18.9318

>  <r_i_glide_ecoul>  (166) 
0.566822

>  <r_i_glide_erotb>  (166) 
0

>  <r_i_glide_esite>  (166) 
-1.82531e-06

>  <r_i_glide_emodel>  (166) 
-20.8912

>  <r_i_glide_energy>  (166) 
-18.365

>  <r_i_glide_einternal>  (166) 
0

>  <r_i_glide_intrahb_reward>  (166) 
-0

>  <i_i_glide_confnum>  (166) 
2

>  <i_i_glide_posenum>  (166) 
15

>  <r_i_glide_eff_state_penalty>  (166) 
0

>  <ligand_id>  (166) 
50

>  <original_smiles>  (166) 
CC1=CC2CC3C(C)=C4C(=O)CCC4OC34OCC4(C)C2CC1

>  <smiles>  (166) 
[H]C1=C(C([H])([H])[H])C([H])([H])C([H])([H])C2([H])C1([H])C([H])([H])C1([H])C(C([H])([H])[H])=C3C(=O)C([H])([H])C([H])([H])C3([H])OC13OC([H])([H])C32C([H])([H])[H]

$$$$
51:0:0
     RDKit          3D

 30 32  0  0  1  0  0  0  0  0999 V2000
    1.6760   -1.1994    3.8333 O   0  0  0  0  0  0  0  0  0  0  0  0
    2.4347   -1.7964    3.0804 C   0  0  0  0  0  0  0  0  0  0  0  0
    2.4114   -1.6524    1.7322 N   0  0  0  0  0  0  0  0  0  0  0  0
    3.2646   -2.3627    0.8798 C   0  0  0  0  0  0  0  0  0  0  0  0
    3.0202   -2.0954   -0.4554 N   0  0  0  0  0  0  0  0  0  0  0  0
    3.3410   -3.0192   -1.5278 C   0  0  0  0  0  0  0  0  0  0  0  0
    4.8492   -3.1096   -1.8247 C   0  0  0  0  0  0  0  0  0  0  0  0
    4.9870   -3.1059   -3.3480 C   0  0  0  0  0  0  0  0  0  0  0  0
    3.5788   -3.2924   -3.9087 C   0  0  0  0  0  0  0  0  0  0  0  0
    2.6721   -2.6607   -2.8630 C   0  0  0  0  0  0  0  0  0  0  0  0
    4.1724   -3.2038    1.2890 N   0  0  0  0  0  0  0  0  0  0  0  0
    4.2410   -3.3834    2.6783 N   0  0  0  0  0  0  0  0  0  0  0  0
    5.1203   -4.2374    3.3067 C   0  0  0  0  0  0  0  0  0  0  0  0
    4.8794   -4.1281    4.6521 C   0  0  0  0  0  0  0  0  0  0  0  0
    3.8203   -3.1901    4.8452 C   0  0  0  0  0  0  0  0  0  0  0  0
    3.4385   -2.7430    3.5998 C   0  0  0  0  0  0  0  0  0  0  0  0
    1.7249   -1.0196    1.3384 H   0  0  0  0  0  0  0  0  0  0  0  0
    2.9872   -4.0143   -1.2388 H   0  0  0  0  0  0  0  0  0  0  0  0
    5.3955   -2.2695   -1.3965 H   0  0  0  0  0  0  0  0  0  0  0  0
    5.2547   -4.0246   -1.3931 H   0  0  0  0  0  0  0  0  0  0  0  0
    5.3629   -2.1345   -3.6545 H   0  0  0  0  0  0  0  0  0  0  0  0
    5.6898   -3.8560   -3.7065 H   0  0  0  0  0  0  0  0  0  0  0  0
    3.4315   -2.8482   -4.8873 H   0  0  0  0  0  0  0  0  0  0  0  0
    3.3640   -4.3523   -4.0030 H   0  0  0  0  0  0  0  0  0  0  0  0
    1.6478   -3.0320   -2.9312 H   0  0  0  0  0  0  0  0  0  0  0  0
    2.6470   -1.5796   -3.0100 H   0  0  0  0  0  0  0  0  0  0  0  0
    5.8280   -4.8288    2.7458 H   0  0  0  0  0  0  0  0  0  0  0  0
    5.4147   -4.6713    5.4180 H   0  0  0  0  0  0  0  0  0  0  0  0
    3.3812   -2.8710    5.7814 H   0  0  0  0  0  0  0  0  0  0  0  0
    2.1518   -1.5513   -0.6846 H   0  0  0  0  0  0  0  0  0  0  0  0
  1  2  2  0
  2 16  1  0
  2  3  1  0
  3 17  1  0
  3  4  1  0
  4  5  1  0
  4 11  2  0
  5  6  1  0
  5 30  1  0
  6 10  1  0
  6  7  1  0
  6 18  1  0
  7  8  1  0
  7 19  1  0
  7 20  1  0
  8  9  1  0
  8 21  1  0
  8 22  1  0
  9 10  1  0
  9 23  1  0
  9 24  1  0
 10 25  1  0
 10 26  1  0
 11 12  1  0
 12 16  1  0
 12 13  1  0
 13 14  2  0
 13 27  1  0
 14 15  1  0
 14 28  1  0
 15 16  2  0
 15 29  1  0
M  END
>  <i_m_ct_stereo_status>  (167) 
1

>  <s_m_source_file>  (167) 
/var/tmp/pbs.5076255.sched01/tmpbrsd6n1o/39u_ie0p0h.sdf

>  <i_m_source_file_index>  (167) 
26

>  <i_lp_mmshare_version>  (167) 
48012

>  <i_f3d_flags>  (167) 
0

>  <s_epik_input>  (167) 
W2NIXTFbY0hdW2NIXWMobjEyKWMoPU8pW25IXS9jKFtuSF0yKT1OXFtDSF0zW0NIMl1bQ0gyXVtDSDJdW0NIMl0z

>  <s_epik_cmdline>  (167) 
J2VwaWtfcHl0aG9uJywgJy1waHQnLCAnMi4wJywgJy1waCcsICc3LjAnLCAnLXRuJywgJzgnLCAnLW1hJywgJzIwMCcsICctaW1hZScsICc8aW5maWxlLm1hZT4nLCAnLW9tYWUnLCAnPG91dGZpbGUubWFlPic=

>  <r_epik_Ionization_Penalty>  (167) 
0.00174459

>  <r_epik_Ionization_Penalty_Charging>  (167) 
0.00173544

>  <r_epik_Ionization_Penalty_Neutral>  (167) 
9.15556e-06

>  <r_epik_State_Penalty>  (167) 
0.00216221

>  <r_epik_Charging_Adjusted_Penalty>  (167) 
0.00389765

>  <i_epik_Tot_Q>  (167) 
0

>  <i_epik_Tot_abs_Q>  (167) 
0

>  <s_lp_Force_Field>  (167) 
OPLS3e

>  <r_lp_Energy>  (167) 
38.0382

>  <b_lp_Chiralities_Consistent>  (167) 
1

>  <s_lp_Variant>  (167) 
51:0-1

>  <s_i_glide_gridfile>  (167) 
pfpi4k_grid

>  <i_i_glide_lignum>  (167) 
26

>  <i_i_glide_rotatable_bonds>  (167) 
2

>  <r_i_docking_score>  (167) 
-3.87639

>  <r_i_glide_ligand_efficiency>  (167) 
-0.242275

>  <r_i_glide_ligand_efficiency_sa>  (167) 
-0.610493

>  <r_i_glide_ligand_efficiency_ln>  (167) 
-1.02752

>  <r_i_glide_gscore>  (167) 
-3.87639

>  <r_i_glide_lipo>  (167) 
-0.354392

>  <r_i_glide_hbond>  (167) 
-0.182332

>  <r_i_glide_metal>  (167) 
-0

>  <r_i_glide_rewards>  (167) 
-1.93153

>  <r_i_glide_evdw>  (167) 
-15.8063

>  <r_i_glide_ecoul>  (167) 
-7.67668

>  <r_i_glide_erotb>  (167) 
0.705434

>  <r_i_glide_esite>  (167) 
-0.17175

>  <r_i_glide_emodel>  (167) 
-30.0837

>  <r_i_glide_energy>  (167) 
-23.483

>  <r_i_glide_einternal>  (167) 
0.0891488

>  <r_i_glide_intrahb_reward>  (167) 
-0

>  <i_i_glide_confnum>  (167) 
6

>  <i_i_glide_posenum>  (167) 
39

>  <r_i_glide_eff_state_penalty>  (167) 
0

>  <ligand_id>  (167) 
51

>  <original_smiles>  (167) 
O=c1[nH]c(=NC2CCCC2)[nH]n2cccc12

>  <smiles>  (167) 
[H]c1c([H])c2c(=O)n([H])c(N([H])C3([H])C([H])([H])C([H])([H])C([H])([H])C3([H])[H])nn2c1[H]

$$$$
51:0:1
     RDKit          3D

 30 32  0  0  1  0  0  0  0  0999 V2000
    5.6981   -0.6499   -0.2239 O   0  0  0  0  0  0  0  0  0  0  0  0
    5.2138   -1.5567   -0.8839 C   0  0  0  0  0  0  0  0  0  0  0  0
    5.3029   -2.8330   -0.4913 N   0  0  0  0  0  0  0  0  0  0  0  0
    4.8012   -3.9025   -1.2328 C   0  0  0  0  0  0  0  0  0  0  0  0
    4.9229   -5.1251   -0.5973 N   0  0  0  0  0  0  0  0  0  0  0  0
    5.1826   -5.3207    0.8269 C   0  0  0  0  0  0  0  0  0  0  0  0
    6.6031   -4.9059    1.2741 C   0  0  0  0  0  0  0  0  0  0  0  0
    7.0849   -5.9754    2.2582 C   0  0  0  0  0  0  0  0  0  0  0  0
    5.8599   -6.8379    2.5647 C   0  0  0  0  0  0  0  0  0  0  0  0
    5.0194   -6.7729    1.2900 C   0  0  0  0  0  0  0  0  0  0  0  0
    4.2579   -3.7719   -2.4090 N   0  0  0  0  0  0  0  0  0  0  0  0
    4.0933   -2.4579   -2.8499 N   0  0  0  0  0  0  0  0  0  0  0  0
    3.4410   -2.0994   -4.0105 C   0  0  0  0  0  0  0  0  0  0  0  0
    3.5258   -0.7381   -4.1005 C   0  0  0  0  0  0  0  0  0  0  0  0
    4.2126   -0.2582   -2.9501 C   0  0  0  0  0  0  0  0  0  0  0  0
    4.5316   -1.3370   -2.1721 C   0  0  0  0  0  0  0  0  0  0  0  0
    5.7585   -3.0479    0.3845 H   0  0  0  0  0  0  0  0  0  0  0  0
    4.4540   -4.7175    1.3749 H   0  0  0  0  0  0  0  0  0  0  0  0
    7.3022   -4.8268    0.4389 H   0  0  0  0  0  0  0  0  0  0  0  0
    6.5657   -3.9311    1.7621 H   0  0  0  0  0  0  0  0  0  0  0  0
    7.8515   -6.5848    1.7786 H   0  0  0  0  0  0  0  0  0  0  0  0
    7.5260   -5.5437    3.1573 H   0  0  0  0  0  0  0  0  0  0  0  0
    6.1283   -7.8569    2.8408 H   0  0  0  0  0  0  0  0  0  0  0  0
    5.3048   -6.4047    3.3981 H   0  0  0  0  0  0  0  0  0  0  0  0
    3.9760   -7.0326    1.4679 H   0  0  0  0  0  0  0  0  0  0  0  0
    5.4154   -7.4745    0.5550 H   0  0  0  0  0  0  0  0  0  0  0  0
    2.9976   -2.8394   -4.6596 H   0  0  0  0  0  0  0  0  0  0  0  0
    3.1384   -0.1418   -4.9162 H   0  0  0  0  0  0  0  0  0  0  0  0
    4.4393    0.7712   -2.7168 H   0  0  0  0  0  0  0  0  0  0  0  0
    4.5321   -5.9289   -1.0764 H   0  0  0  0  0  0  0  0  0  0  0  0
  1  2  2  0
  2 16  1  0
  2  3  1  0
  3 17  1  0
  3  4  1  0
  4  5  1  0
  4 11  2  0
  5  6  1  0
  5 30  1  0
  6 10  1  0
  6  7  1  0
  6 18  1  0
  7  8  1  0
  7 19  1  0
  7 20  1  0
  8  9  1  0
  8 21  1  0
  8 22  1  0
  9 10  1  0
  9 23  1  0
  9 24  1  0
 10 25  1  0
 10 26  1  0
 11 12  1  0
 12 16  1  0
 12 13  1  0
 13 14  2  0
 13 27  1  0
 14 15  1  0
 14 28  1  0
 15 16  2  0
 15 29  1  0
M  END
>  <i_m_ct_stereo_status>  (168) 
1

>  <s_m_source_file>  (168) 
/var/tmp/pbs.5076255.sched01/tmpbrsd6n1o/39u_ie0p0h.sdf

>  <i_m_source_file_index>  (168) 
26

>  <i_lp_mmshare_version>  (168) 
48012

>  <i_f3d_flags>  (168) 
0

>  <s_epik_input>  (168) 
W2NIXTFbY0hdW2NIXWMobjEyKWMoPU8pW25IXS9jKFtuSF0yKT1OXFtDSF0zW0NIMl1bQ0gyXVtDSDJdW0NIMl0z

>  <s_epik_cmdline>  (168) 
J2VwaWtfcHl0aG9uJywgJy1waHQnLCAnMi4wJywgJy1waCcsICc3LjAnLCAnLXRuJywgJzgnLCAnLW1hJywgJzIwMCcsICctaW1hZScsICc8aW5maWxlLm1hZT4nLCAnLW9tYWUnLCAnPG91dGZpbGUubWFlPic=

>  <r_epik_Ionization_Penalty>  (168) 
0.00174459

>  <r_epik_Ionization_Penalty_Charging>  (168) 
0.00173544

>  <r_epik_Ionization_Penalty_Neutral>  (168) 
9.15556e-06

>  <r_epik_State_Penalty>  (168) 
0.00216221

>  <r_epik_Charging_Adjusted_Penalty>  (168) 
0.00389765

>  <i_epik_Tot_Q>  (168) 
0

>  <i_epik_Tot_abs_Q>  (168) 
0

>  <s_lp_Force_Field>  (168) 
OPLS3e

>  <r_lp_Energy>  (168) 
38.0382

>  <b_lp_Chiralities_Consistent>  (168) 
1

>  <s_lp_Variant>  (168) 
51:0-1

>  <s_i_glide_gridfile>  (168) 
pfpi4k_grid

>  <i_i_glide_lignum>  (168) 
26

>  <i_i_glide_rotatable_bonds>  (168) 
2

>  <r_i_docking_score>  (168) 
-3.38128

>  <r_i_glide_ligand_efficiency>  (168) 
-0.21133

>  <r_i_glide_ligand_efficiency_sa>  (168) 
-0.532519

>  <r_i_glide_ligand_efficiency_ln>  (168) 
-0.896276

>  <r_i_glide_gscore>  (168) 
-3.38128

>  <r_i_glide_lipo>  (168) 
-0.719372

>  <r_i_glide_hbond>  (168) 
-0.136484

>  <r_i_glide_metal>  (168) 
-0

>  <r_i_glide_rewards>  (168) 
-2.07803

>  <r_i_glide_evdw>  (168) 
-21.4683

>  <r_i_glide_ecoul>  (168) 
-0.309789

>  <r_i_glide_erotb>  (168) 
0.705434

>  <r_i_glide_esite>  (168) 
-0.0329467

>  <r_i_glide_emodel>  (168) 
-26.6136

>  <r_i_glide_energy>  (168) 
-21.7781

>  <r_i_glide_einternal>  (168) 
2.28814

>  <r_i_glide_intrahb_reward>  (168) 
-0

>  <i_i_glide_confnum>  (168) 
4

>  <i_i_glide_posenum>  (168) 
17

>  <r_i_glide_eff_state_penalty>  (168) 
0

>  <ligand_id>  (168) 
51

>  <original_smiles>  (168) 
O=c1[nH]c(=NC2CCCC2)[nH]n2cccc12

>  <smiles>  (168) 
[H]c1c([H])c2c(=O)n([H])c(N([H])C3([H])C([H])([H])C([H])([H])C([H])([H])C3([H])[H])nn2c1[H]

$$$$
51:0:2
     RDKit          3D

 30 32  0  0  1  0  0  0  0  0999 V2000
    5.1740   -4.7426    2.5595 O   0  0  0  0  0  0  0  0  0  0  0  0
    4.1687   -5.0230    1.9148 C   0  0  0  0  0  0  0  0  0  0  0  0
    3.7762   -4.3546    0.8254 N   0  0  0  0  0  0  0  0  0  0  0  0
    2.6182   -4.6830    0.0994 C   0  0  0  0  0  0  0  0  0  0  0  0
    2.4269   -3.8832   -1.0050 N   0  0  0  0  0  0  0  0  0  0  0  0
    3.4699   -3.1435   -1.7104 C   0  0  0  0  0  0  0  0  0  0  0  0
    3.9695   -1.9052   -0.9586 C   0  0  0  0  0  0  0  0  0  0  0  0
    4.6211   -1.0534   -2.0332 C   0  0  0  0  0  0  0  0  0  0  0  0
    3.8614   -1.3481   -3.3281 C   0  0  0  0  0  0  0  0  0  0  0  0
    3.0053   -2.5962   -3.0673 C   0  0  0  0  0  0  0  0  0  0  0  0
    1.8084   -5.6518    0.4211 N   0  0  0  0  0  0  0  0  0  0  0  0
    2.1827   -6.3948    1.5518 N   0  0  0  0  0  0  0  0  0  0  0  0
    1.4870   -7.4796    2.0403 C   0  0  0  0  0  0  0  0  0  0  0  0
    2.1701   -7.9090    3.1432 C   0  0  0  0  0  0  0  0  0  0  0  0
    3.3205   -7.0728    3.3254 C   0  0  0  0  0  0  0  0  0  0  0  0
    3.3091   -6.1484    2.3273 C   0  0  0  0  0  0  0  0  0  0  0  0
    4.3331   -3.5694    0.5133 H   0  0  0  0  0  0  0  0  0  0  0  0
    4.3130   -3.8132   -1.9027 H   0  0  0  0  0  0  0  0  0  0  0  0
    3.1196   -1.3830   -0.5186 H   0  0  0  0  0  0  0  0  0  0  0  0
    4.6816   -2.1303   -0.1643 H   0  0  0  0  0  0  0  0  0  0  0  0
    4.5942   -0.0026   -1.7613 H   0  0  0  0  0  0  0  0  0  0  0  0
    5.6652   -1.3449   -2.1374 H   0  0  0  0  0  0  0  0  0  0  0  0
    3.2165   -0.5114   -3.5916 H   0  0  0  0  0  0  0  0  0  0  0  0
    4.5603   -1.5019   -4.1481 H   0  0  0  0  0  0  0  0  0  0  0  0
    3.0994   -3.3410   -3.8610 H   0  0  0  0  0  0  0  0  0  0  0  0
    1.9573   -2.3029   -3.0157 H   0  0  0  0  0  0  0  0  0  0  0  0
    0.5857   -7.8433    1.5563 H   0  0  0  0  0  0  0  0  0  0  0  0
    1.8730   -8.7448    3.7534 H   0  0  0  0  0  0  0  0  0  0  0  0
    4.0815   -7.1306    4.0970 H   0  0  0  0  0  0  0  0  0  0  0  0
    1.6497   -4.0812   -1.6193 H   0  0  0  0  0  0  0  0  0  0  0  0
  1  2  2  0
  2 16  1  0
  2  3  1  0
  3 17  1  0
  3  4  1  0
  4  5  1  0
  4 11  2  0
  5  6  1  0
  5 30  1  0
  6 10  1  0
  6  7  1  0
  6 18  1  0
  7  8  1  0
  7 19  1  0
  7 20  1  0
  8  9  1  0
  8 21  1  0
  8 22  1  0
  9 10  1  0
  9 23  1  0
  9 24  1  0
 10 25  1  0
 10 26  1  0
 11 12  1  0
 12 16  1  0
 12 13  1  0
 13 14  2  0
 13 27  1  0
 14 15  1  0
 14 28  1  0
 15 16  2  0
 15 29  1  0
M  END
>  <i_m_ct_stereo_status>  (169) 
1

>  <s_m_source_file>  (169) 
/var/tmp/pbs.5076255.sched01/tmpbrsd6n1o/39u_ie0p0h.sdf

>  <i_m_source_file_index>  (169) 
26

>  <i_lp_mmshare_version>  (169) 
48012

>  <i_f3d_flags>  (169) 
0

>  <s_epik_input>  (169) 
W2NIXTFbY0hdW2NIXWMobjEyKWMoPU8pW25IXS9jKFtuSF0yKT1OXFtDSF0zW0NIMl1bQ0gyXVtDSDJdW0NIMl0z

>  <s_epik_cmdline>  (169) 
J2VwaWtfcHl0aG9uJywgJy1waHQnLCAnMi4wJywgJy1waCcsICc3LjAnLCAnLXRuJywgJzgnLCAnLW1hJywgJzIwMCcsICctaW1hZScsICc8aW5maWxlLm1hZT4nLCAnLW9tYWUnLCAnPG91dGZpbGUubWFlPic=

>  <r_epik_Ionization_Penalty>  (169) 
0.00174459

>  <r_epik_Ionization_Penalty_Charging>  (169) 
0.00173544

>  <r_epik_Ionization_Penalty_Neutral>  (169) 
9.15556e-06

>  <r_epik_State_Penalty>  (169) 
0.00216221

>  <r_epik_Charging_Adjusted_Penalty>  (169) 
0.00389765

>  <i_epik_Tot_Q>  (169) 
0

>  <i_epik_Tot_abs_Q>  (169) 
0

>  <s_lp_Force_Field>  (169) 
OPLS3e

>  <r_lp_Energy>  (169) 
38.0382

>  <b_lp_Chiralities_Consistent>  (169) 
1

>  <s_lp_Variant>  (169) 
51:0-1

>  <s_i_glide_gridfile>  (169) 
pfpi4k_grid

>  <i_i_glide_lignum>  (169) 
26

>  <i_i_glide_rotatable_bonds>  (169) 
2

>  <r_i_docking_score>  (169) 
-3.14807

>  <r_i_glide_ligand_efficiency>  (169) 
-0.196755

>  <r_i_glide_ligand_efficiency_sa>  (169) 
-0.49579

>  <r_i_glide_ligand_efficiency_ln>  (169) 
-0.834459

>  <r_i_glide_gscore>  (169) 
-3.14807

>  <r_i_glide_lipo>  (169) 
-0.174718

>  <r_i_glide_hbond>  (169) 
-0.0872195

>  <r_i_glide_metal>  (169) 
-0

>  <r_i_glide_rewards>  (169) 
-1.92099

>  <r_i_glide_evdw>  (169) 
-20.5934

>  <r_i_glide_ecoul>  (169) 
-3.59214

>  <r_i_glide_erotb>  (169) 
0.705434

>  <r_i_glide_esite>  (169) 
-0.102089

>  <r_i_glide_emodel>  (169) 
-28.6324

>  <r_i_glide_energy>  (169) 
-24.1855

>  <r_i_glide_einternal>  (169) 
2.28234

>  <r_i_glide_intrahb_reward>  (169) 
-0

>  <i_i_glide_confnum>  (169) 
5

>  <i_i_glide_posenum>  (169) 
4

>  <r_i_glide_eff_state_penalty>  (169) 
0

>  <ligand_id>  (169) 
51

>  <original_smiles>  (169) 
O=c1[nH]c(=NC2CCCC2)[nH]n2cccc12

>  <smiles>  (169) 
[H]c1c([H])c2c(=O)n([H])c(N([H])C3([H])C([H])([H])C([H])([H])C([H])([H])C3([H])[H])nn2c1[H]

$$$$
52:0:0
     RDKit          3D

 33 35  0  0  1  0  0  0  0  0999 V2000
    4.3420   -4.4605    0.3905 C   0  0  0  0  0  0  0  0  0  0  0  0
    2.9397   -4.8019    0.1011 N   0  0  0  0  0  0  0  0  0  0  0  0
    2.3337   -3.8457   -0.8413 C   0  0  0  0  0  0  0  0  0  0  0  0
    2.2645   -5.8491    0.6303 C   0  0  0  0  0  0  0  0  0  0  0  0
    1.0423   -5.9512    0.4237 O   0  0  0  0  0  0  0  0  0  0  0  0
    2.9539   -6.9328    1.4982 C   0  0  1  0  0  0  0  0  0  0  0  0
    3.2456   -6.4580    2.9406 C   0  0  0  0  0  0  0  0  0  0  0  0
    3.3032   -7.7831    3.6988 C   0  0  2  0  0  0  0  0  0  0  0  0
    4.4770   -8.6665    3.1621 C   0  0  0  0  0  0  0  0  0  0  0  0
    4.3493   -8.8686    1.6190 C   0  0  1  0  0  0  0  0  0  0  0  0
    2.9698   -9.4155    1.2694 C   0  0  0  0  0  0  0  0  0  0  0  0
    2.0881   -8.2428    1.7363 C   0  0  1  0  0  0  0  0  0  0  0  0
    1.9695   -8.3844    3.2627 C   0  0  0  0  0  0  0  0  0  0  0  0
    4.2854   -7.5019    0.9328 C   0  0  0  0  0  0  0  0  0  0  0  0
    4.8486   -5.0635    1.1520 H   0  0  0  0  0  0  0  0  0  0  0  0
    4.3957   -3.3942    0.6945 H   0  0  0  0  0  0  0  0  0  0  0  0
    4.9231   -4.5442   -0.5448 H   0  0  0  0  0  0  0  0  0  0  0  0
    1.3006   -4.0412   -1.1036 H   0  0  0  0  0  0  0  0  0  0  0  0
    2.8902   -3.8609   -1.7728 H   0  0  0  0  0  0  0  0  0  0  0  0
    2.4047   -2.8388   -0.4424 H   0  0  0  0  0  0  0  0  0  0  0  0
    4.1681   -5.8949    3.0472 H   0  0  0  0  0  0  0  0  0  0  0  0
    2.4373   -5.8347    3.3311 H   0  0  0  0  0  0  0  0  0  0  0  0
    3.3610   -7.6476    4.7787 H   0  0  0  0  0  0  0  0  0  0  0  0
    5.4248   -8.1808    3.3908 H   0  0  0  0  0  0  0  0  0  0  0  0
    4.4795   -9.6296    3.6604 H   0  0  0  0  0  0  0  0  0  0  0  0
    5.1533   -9.4921    1.2171 H   0  0  0  0  0  0  0  0  0  0  0  0
    2.8935   -9.5698    0.1970 H   0  0  0  0  0  0  0  0  0  0  0  0
    2.7533  -10.3659    1.7564 H   0  0  0  0  0  0  0  0  0  0  0  0
    1.1032   -8.2625    1.2641 H   0  0  0  0  0  0  0  0  0  0  0  0
    1.8382   -9.4148    3.6015 H   0  0  0  0  0  0  0  0  0  0  0  0
    1.1335   -7.7990    3.6532 H   0  0  0  0  0  0  0  0  0  0  0  0
    4.2720   -7.6246   -0.1568 H   0  0  0  0  0  0  0  0  0  0  0  0
    5.1701   -6.9174    1.1872 H   0  0  0  0  0  0  0  0  0  0  0  0
  1  2  1  0
  1 15  1  0
  1 16  1  0
  1 17  1  0
  2  3  1  0
  2  4  1  0
  3 18  1  0
  3 19  1  0
  3 20  1  0
  4  5  2  0
  6  4  1  6
  6 12  1  0
  6 14  1  0
  6  7  1  0
  7  8  1  0
  7 21  1  0
  7 22  1  0
  8 13  1  0
  8  9  1  0
  8 23  1  1
  9 10  1  0
  9 24  1  0
  9 25  1  0
 10 11  1  0
 10 14  1  0
 10 26  1  6
 11 12  1  0
 11 27  1  0
 11 28  1  0
 12 13  1  0
 12 29  1  6
 13 30  1  0
 13 31  1  0
 14 32  1  0
 14 33  1  0
M  END
>  <i_m_ct_stereo_status>  (170) 
1

>  <s_m_source_file>  (170) 
/var/tmp/pbs.5076255.sched01/tmpbrsd6n1o/39u_ie0p0h.sdf

>  <i_m_source_file_index>  (170) 
27

>  <i_lp_mmshare_version>  (170) 
48012

>  <i_f3d_flags>  (170) 
0

>  <s_epik_input>  (170) 
W0NIM11OKFtDSDNdKUMoPU8pW0NAXTEyW0NASF0zW0NIMl1bQ0BASF0oW0NIMl0yKVtDSDJdW0NAQEhdKFtDSDJdMSlbQ0gyXTM=

>  <s_epik_cmdline>  (170) 
J2VwaWtfcHl0aG9uJywgJy1waHQnLCAnMi4wJywgJy1waCcsICc3LjAnLCAnLXRuJywgJzgnLCAnLW1hJywgJzIwMCcsICctaW1hZScsICc8aW5maWxlLm1hZT4nLCAnLW9tYWUnLCAnPG91dGZpbGUubWFlPic=

>  <r_lp_tautomer_probability>  (170) 
1

>  <r_epik_Ionization_Penalty>  (170) 
7.27268e-08

>  <r_epik_Ionization_Penalty_Charging>  (170) 
0

>  <r_epik_Ionization_Penalty_Neutral>  (170) 
7.27268e-08

>  <r_epik_State_Penalty>  (170) 
-0

>  <r_epik_Charging_Adjusted_Penalty>  (170) 
0

>  <i_epik_Tot_Q>  (170) 
0

>  <i_epik_Tot_abs_Q>  (170) 
0

>  <s_lp_Force_Field>  (170) 
OPLS3e

>  <r_lp_Energy>  (170) 
49.1924

>  <b_lp_Chiralities_Consistent>  (170) 
1

>  <s_lp_Variant>  (170) 
52:0-1

>  <s_i_glide_gridfile>  (170) 
pfpi4k_grid

>  <i_i_glide_lignum>  (170) 
27

>  <i_i_glide_rotatable_bonds>  (170) 
2

>  <r_i_docking_score>  (170) 
-3.83581

>  <r_i_glide_ligand_efficiency>  (170) 
-0.273987

>  <r_i_glide_ligand_efficiency_sa>  (170) 
-0.660347

>  <r_i_glide_ligand_efficiency_ln>  (170) 
-1.05407

>  <r_i_glide_gscore>  (170) 
-3.83581

>  <r_i_glide_lipo>  (170) 
-0.172917

>  <r_i_glide_hbond>  (170) 
-0.169834

>  <r_i_glide_metal>  (170) 
-0

>  <r_i_glide_rewards>  (170) 
-2.09124

>  <r_i_glide_evdw>  (170) 
-12.2507

>  <r_i_glide_ecoul>  (170) 
-4.73989

>  <r_i_glide_erotb>  (170) 
0

>  <r_i_glide_esite>  (170) 
-0.0783082

>  <r_i_glide_emodel>  (170) 
-20.7626

>  <r_i_glide_energy>  (170) 
-16.9906

>  <r_i_glide_einternal>  (170) 
0.192135

>  <r_i_glide_intrahb_reward>  (170) 
-0

>  <i_i_glide_confnum>  (170) 
2

>  <i_i_glide_posenum>  (170) 
11

>  <r_i_glide_eff_state_penalty>  (170) 
0

>  <ligand_id>  (170) 
52

>  <original_smiles>  (170) 
CN(C)C(=O)C12CC3CC(CC1C3)C2

>  <smiles>  (170) 
[H]C([H])([H])N(C(=O)C12C([H])([H])C3([H])C([H])([H])C([H])(C([H])([H])C1([H])C3([H])[H])C2([H])[H])C([H])([H])[H]

$$$$
52:0:1
     RDKit          3D

 33 35  0  0  1  0  0  0  0  0999 V2000
    4.5298   -2.5481   -3.6393 C   0  0  0  0  0  0  0  0  0  0  0  0
    3.2900   -2.8421   -2.9233 N   0  0  0  0  0  0  0  0  0  0  0  0
    2.1464   -2.7642   -3.8463 C   0  0  0  0  0  0  0  0  0  0  0  0
    3.1642   -3.1645   -1.6203 C   0  0  0  0  0  0  0  0  0  0  0  0
    2.0712   -3.4570   -1.1562 O   0  0  0  0  0  0  0  0  0  0  0  0
    4.3927   -3.2044   -0.6518 C   0  0  1  0  0  0  0  0  0  0  0  0
    4.0355   -3.7284    0.7731 C   0  0  0  0  0  0  0  0  0  0  0  0
    5.3975   -4.2237    1.2762 C   0  0  2  0  0  0  0  0  0  0  0  0
    6.3822   -3.0200    1.4022 C   0  0  0  0  0  0  0  0  0  0  0  0
    6.4513   -2.2415    0.0656 C   0  0  1  0  0  0  0  0  0  0  0  0
    6.8637   -3.2333   -1.0263 C   0  0  0  0  0  0  0  0  0  0  0  0
    5.5851   -4.1333   -1.0643 C   0  0  1  0  0  0  0  0  0  0  0  0
    5.7725   -5.1088    0.0938 C   0  0  0  0  0  0  0  0  0  0  0  0
    5.0341   -1.8285   -0.3791 C   0  0  0  0  0  0  0  0  0  0  0  0
    5.4350   -2.5381   -3.0690 H   0  0  0  0  0  0  0  0  0  0  0  0
    4.4556   -1.5725   -4.1474 H   0  0  0  0  0  0  0  0  0  0  0  0
    4.6377   -3.2843   -4.4500 H   0  0  0  0  0  0  0  0  0  0  0  0
    1.1804   -2.9570   -3.3924 H   0  0  0  0  0  0  0  0  0  0  0  0
    2.2804   -3.4803   -4.6627 H   0  0  0  0  0  0  0  0  0  0  0  0
    2.1247   -1.7709   -4.3027 H   0  0  0  0  0  0  0  0  0  0  0  0
    3.6012   -2.9618    1.4294 H   0  0  0  0  0  0  0  0  0  0  0  0
    3.3357   -4.5702    0.7670 H   0  0  0  0  0  0  0  0  0  0  0  0
    5.3319   -4.7857    2.2121 H   0  0  0  0  0  0  0  0  0  0  0  0
    6.0652   -2.3500    2.2015 H   0  0  0  0  0  0  0  0  0  0  0  0
    7.3755   -3.3943    1.6491 H   0  0  0  0  0  0  0  0  0  0  0  0
    7.1236   -1.3909    0.1328 H   0  0  0  0  0  0  0  0  0  0  0  0
    7.0787   -2.6860   -1.9531 H   0  0  0  0  0  0  0  0  0  0  0  0
    7.7718   -3.7983   -0.7517 H   0  0  0  0  0  0  0  0  0  0  0  0
    5.4187   -4.6520   -2.0061 H   0  0  0  0  0  0  0  0  0  0  0  0
    6.7782   -5.5145    0.1685 H   0  0  0  0  0  0  0  0  0  0  0  0
    5.1012   -5.9543    0.0071 H   0  0  0  0  0  0  0  0  0  0  0  0
    5.0598   -1.1950   -1.2690 H   0  0  0  0  0  0  0  0  0  0  0  0
    4.4918   -1.2641    0.3883 H   0  0  0  0  0  0  0  0  0  0  0  0
  1  2  1  0
  1 15  1  0
  1 16  1  0
  1 17  1  0
  2  3  1  0
  2  4  1  0
  3 18  1  0
  3 19  1  0
  3 20  1  0
  4  5  2  0
  6  4  1  6
  6 12  1  0
  6 14  1  0
  6  7  1  0
  7  8  1  0
  7 21  1  0
  7 22  1  0
  8 13  1  0
  8  9  1  0
  8 23  1  1
  9 10  1  0
  9 24  1  0
  9 25  1  0
 10 11  1  0
 10 14  1  0
 10 26  1  1
 11 12  1  0
 11 27  1  0
 11 28  1  0
 12 13  1  0
 12 29  1  6
 13 30  1  0
 13 31  1  0
 14 32  1  0
 14 33  1  0
M  END
>  <i_m_ct_stereo_status>  (171) 
1

>  <s_m_source_file>  (171) 
/var/tmp/pbs.5076255.sched01/tmpbrsd6n1o/39u_ie0p0h.sdf

>  <i_m_source_file_index>  (171) 
27

>  <i_lp_mmshare_version>  (171) 
48012

>  <i_f3d_flags>  (171) 
0

>  <s_epik_input>  (171) 
W0NIM11OKFtDSDNdKUMoPU8pW0NAXTEyW0NASF0zW0NIMl1bQ0BASF0oW0NIMl0yKVtDSDJdW0NAQEhdKFtDSDJdMSlbQ0gyXTM=

>  <s_epik_cmdline>  (171) 
J2VwaWtfcHl0aG9uJywgJy1waHQnLCAnMi4wJywgJy1waCcsICc3LjAnLCAnLXRuJywgJzgnLCAnLW1hJywgJzIwMCcsICctaW1hZScsICc8aW5maWxlLm1hZT4nLCAnLW9tYWUnLCAnPG91dGZpbGUubWFlPic=

>  <r_lp_tautomer_probability>  (171) 
1

>  <r_epik_Ionization_Penalty>  (171) 
7.27268e-08

>  <r_epik_Ionization_Penalty_Charging>  (171) 
0

>  <r_epik_Ionization_Penalty_Neutral>  (171) 
7.27268e-08

>  <r_epik_State_Penalty>  (171) 
-0

>  <r_epik_Charging_Adjusted_Penalty>  (171) 
0

>  <i_epik_Tot_Q>  (171) 
0

>  <i_epik_Tot_abs_Q>  (171) 
0

>  <s_lp_Force_Field>  (171) 
OPLS3e

>  <r_lp_Energy>  (171) 
49.1924

>  <b_lp_Chiralities_Consistent>  (171) 
1

>  <s_lp_Variant>  (171) 
52:0-1

>  <s_i_glide_gridfile>  (171) 
pfpi4k_grid

>  <i_i_glide_lignum>  (171) 
27

>  <i_i_glide_rotatable_bonds>  (171) 
2

>  <r_i_docking_score>  (171) 
-3.6441

>  <r_i_glide_ligand_efficiency>  (171) 
-0.260293

>  <r_i_glide_ligand_efficiency_sa>  (171) 
-0.627342

>  <r_i_glide_ligand_efficiency_ln>  (171) 
-1.00138

>  <r_i_glide_gscore>  (171) 
-3.6441

>  <r_i_glide_lipo>  (171) 
-0.704957

>  <r_i_glide_hbond>  (171) 
0

>  <r_i_glide_metal>  (171) 
-0

>  <r_i_glide_rewards>  (171) 
-2.16835

>  <r_i_glide_evdw>  (171) 
-17.926

>  <r_i_glide_ecoul>  (171) 
0.851697

>  <r_i_glide_erotb>  (171) 
0

>  <r_i_glide_esite>  (171) 
-0.00224457

>  <r_i_glide_emodel>  (171) 
-20.8722

>  <r_i_glide_energy>  (171) 
-17.0743

>  <r_i_glide_einternal>  (171) 
0.386186

>  <r_i_glide_intrahb_reward>  (171) 
-0

>  <i_i_glide_confnum>  (171) 
1

>  <i_i_glide_posenum>  (171) 
18

>  <r_i_glide_eff_state_penalty>  (171) 
0

>  <ligand_id>  (171) 
52

>  <original_smiles>  (171) 
CN(C)C(=O)C12CC3CC(CC1C3)C2

>  <smiles>  (171) 
[H]C([H])([H])N(C(=O)C12C([H])([H])C3([H])C([H])([H])C([H])(C([H])([H])C1([H])C3([H])[H])C2([H])[H])C([H])([H])[H]

$$$$
52:0:2
     RDKit          3D

 33 35  0  0  1  0  0  0  0  0999 V2000
    4.5920   -2.0127   -2.8705 C   0  0  0  0  0  0  0  0  0  0  0  0
    3.4402   -2.7856   -2.3511 N   0  0  0  0  0  0  0  0  0  0  0  0
    2.6368   -3.2726   -3.4632 C   0  0  0  0  0  0  0  0  0  0  0  0
    3.1785   -3.0683   -1.0405 C   0  0  0  0  0  0  0  0  0  0  0  0
    2.2485   -3.8316   -0.7379 O   0  0  0  0  0  0  0  0  0  0  0  0
    4.0103   -2.4652    0.1394 C   0  0  1  0  0  0  0  0  0  0  0  0
    5.4096   -3.0825    0.3098 C   0  0  0  0  0  0  0  0  0  0  0  0
    6.1485   -1.9566    1.0718 C   0  0  2  0  0  0  0  0  0  0  0  0
    5.5181   -1.7641    2.4761 C   0  0  0  0  0  0  0  0  0  0  0  0
    3.9859   -1.5237    2.3507 C   0  0  1  0  0  0  0  0  0  0  0  0
    3.6930   -0.3633    1.3962 C   0  0  0  0  0  0  0  0  0  0  0  0
    4.2753   -0.9066    0.0916 C   0  0  1  0  0  0  0  0  0  0  0  0
    5.8102   -0.7220    0.2471 C   0  0  0  0  0  0  0  0  0  0  0  0
    3.3484   -2.6526    1.5314 C   0  0  0  0  0  0  0  0  0  0  0  0
    5.3085   -1.7336   -2.1512 H   0  0  0  0  0  0  0  0  0  0  0  0
    4.1975   -1.1219   -3.3996 H   0  0  0  0  0  0  0  0  0  0  0  0
    5.1256   -2.6176   -3.6271 H   0  0  0  0  0  0  0  0  0  0  0  0
    1.7897   -3.8948   -3.1456 H   0  0  0  0  0  0  0  0  0  0  0  0
    3.2578   -3.8613   -4.1309 H   0  0  0  0  0  0  0  0  0  0  0  0
    2.2482   -2.4299   -4.0267 H   0  0  0  0  0  0  0  0  0  0  0  0
    5.3804   -4.0262    0.8643 H   0  0  0  0  0  0  0  0  0  0  0  0
    5.8868   -3.2998   -0.6394 H   0  0  0  0  0  0  0  0  0  0  0  0
    7.2186   -2.1375    1.1142 H   0  0  0  0  0  0  0  0  0  0  0  0
    5.7240   -2.6415    3.0928 H   0  0  0  0  0  0  0  0  0  0  0  0
    5.9984   -0.8984    2.9470 H   0  0  0  0  0  0  0  0  0  0  0  0
    3.5193   -1.3796    3.3261 H   0  0  0  0  0  0  0  0  0  0  0  0
    2.6206   -0.1814    1.3088 H   0  0  0  0  0  0  0  0  0  0  0  0
    4.1517    0.5765    1.7137 H   0  0  0  0  0  0  0  0  0  0  0  0
    3.8378   -0.4063   -0.7606 H   0  0  0  0  0  0  0  0  0  0  0  0
    6.0848    0.2229    0.7400 H   0  0  0  0  0  0  0  0  0  0  0  0
    6.3662   -0.7990   -0.6822 H   0  0  0  0  0  0  0  0  0  0  0  0
    2.2646   -2.5126    1.5087 H   0  0  0  0  0  0  0  0  0  0  0  0
    3.5344   -3.6407    1.9700 H   0  0  0  0  0  0  0  0  0  0  0  0
  1  2  1  0
  1 15  1  0
  1 16  1  0
  1 17  1  0
  2  3  1  0
  2  4  1  0
  3 18  1  0
  3 19  1  0
  3 20  1  0
  4  5  2  0
  6  4  1  6
  6 12  1  0
  6 14  1  0
  6  7  1  0
  7  8  1  0
  7 21  1  0
  7 22  1  0
  8 13  1  0
  8  9  1  0
  8 23  1  1
  9 10  1  0
  9 24  1  0
  9 25  1  0
 10 11  1  0
 10 14  1  0
 10 26  1  1
 11 12  1  0
 11 27  1  0
 11 28  1  0
 12 13  1  0
 12 29  1  6
 13 30  1  0
 13 31  1  0
 14 32  1  0
 14 33  1  0
M  END
>  <i_m_ct_stereo_status>  (172) 
1

>  <s_m_source_file>  (172) 
/var/tmp/pbs.5076255.sched01/tmpbrsd6n1o/39u_ie0p0h.sdf

>  <i_m_source_file_index>  (172) 
27

>  <i_lp_mmshare_version>  (172) 
48012

>  <i_f3d_flags>  (172) 
0

>  <s_epik_input>  (172) 
W0NIM11OKFtDSDNdKUMoPU8pW0NAXTEyW0NASF0zW0NIMl1bQ0BASF0oW0NIMl0yKVtDSDJdW0NAQEhdKFtDSDJdMSlbQ0gyXTM=

>  <s_epik_cmdline>  (172) 
J2VwaWtfcHl0aG9uJywgJy1waHQnLCAnMi4wJywgJy1waCcsICc3LjAnLCAnLXRuJywgJzgnLCAnLW1hJywgJzIwMCcsICctaW1hZScsICc8aW5maWxlLm1hZT4nLCAnLW9tYWUnLCAnPG91dGZpbGUubWFlPic=

>  <r_lp_tautomer_probability>  (172) 
1

>  <r_epik_Ionization_Penalty>  (172) 
7.27268e-08

>  <r_epik_Ionization_Penalty_Charging>  (172) 
0

>  <r_epik_Ionization_Penalty_Neutral>  (172) 
7.27268e-08

>  <r_epik_State_Penalty>  (172) 
-0

>  <r_epik_Charging_Adjusted_Penalty>  (172) 
0

>  <i_epik_Tot_Q>  (172) 
0

>  <i_epik_Tot_abs_Q>  (172) 
0

>  <s_lp_Force_Field>  (172) 
OPLS3e

>  <r_lp_Energy>  (172) 
49.1924

>  <b_lp_Chiralities_Consistent>  (172) 
1

>  <s_lp_Variant>  (172) 
52:0-1

>  <s_i_glide_gridfile>  (172) 
pfpi4k_grid

>  <i_i_glide_lignum>  (172) 
27

>  <i_i_glide_rotatable_bonds>  (172) 
2

>  <r_i_docking_score>  (172) 
-3.49233

>  <r_i_glide_ligand_efficiency>  (172) 
-0.249452

>  <r_i_glide_ligand_efficiency_sa>  (172) 
-0.601215

>  <r_i_glide_ligand_efficiency_ln>  (172) 
-0.95968

>  <r_i_glide_gscore>  (172) 
-3.49233

>  <r_i_glide_lipo>  (172) 
-0.613477

>  <r_i_glide_hbond>  (172) 
0

>  <r_i_glide_metal>  (172) 
-0

>  <r_i_glide_rewards>  (172) 
-2.09124

>  <r_i_glide_evdw>  (172) 
-17.0492

>  <r_i_glide_ecoul>  (172) 
0.605659

>  <r_i_glide_erotb>  (172) 
0

>  <r_i_glide_esite>  (172) 
-0.0260078

>  <r_i_glide_emodel>  (172) 
-20.0307

>  <r_i_glide_energy>  (172) 
-16.4435

>  <r_i_glide_einternal>  (172) 
0.429086

>  <r_i_glide_intrahb_reward>  (172) 
-0

>  <i_i_glide_confnum>  (172) 
1

>  <i_i_glide_posenum>  (172) 
19

>  <r_i_glide_eff_state_penalty>  (172) 
0

>  <ligand_id>  (172) 
52

>  <original_smiles>  (172) 
CN(C)C(=O)C12CC3CC(CC1C3)C2

>  <smiles>  (172) 
[H]C([H])([H])N(C(=O)C12C([H])([H])C3([H])C([H])([H])C([H])(C([H])([H])C1([H])C3([H])[H])C2([H])[H])C([H])([H])[H]

$$$$
53:0:0
     RDKit          3D

 29 31  0  0  1  0  0  0  0  0999 V2000
   -1.7864    2.1700    2.7738 C   0  0  0  0  0  0  0  0  0  0  0  0
   -0.4828    2.6153    3.4008 C   0  0  0  0  0  0  0  0  0  0  0  0
    0.6705    1.9105    3.2405 C   0  0  0  0  0  0  0  0  0  0  0  0
    1.9469    2.3288    3.8746 C   0  0  0  0  0  0  0  0  0  0  0  0
    2.9868    1.6903    3.7467 O   0  0  0  0  0  0  0  0  0  0  0  0
    1.8562    3.5609    4.6778 C   0  0  0  0  0  0  0  0  0  0  0  0
    0.7334    4.2684    4.8308 C   0  0  0  0  0  0  0  0  0  0  0  0
    0.9308    5.5224    5.6592 C   0  0  0  0  0  0  0  0  0  0  0  0
    2.4164    5.4385    6.0190 C   0  0  1  0  0  0  0  0  0  0  0  0
    2.9943    4.1823    5.3750 C   0  0  2  0  0  0  0  0  0  0  0  0
    3.5535    5.5397    5.0117 C   0  0  0  0  0  0  0  0  0  0  0  0
    3.3078    6.1351    3.6324 C   0  0  0  0  0  0  0  0  0  0  0  0
    4.9352    5.9092    5.5202 C   0  0  0  0  0  0  0  0  0  0  0  0
   -0.5307    3.8751    4.1982 C   0  0  0  0  0  0  0  0  0  0  0  0
   -1.5557    4.5360    4.3365 O   0  0  0  0  0  0  0  0  0  0  0  0
   -2.1604    2.9356    2.0950 H   0  0  0  0  0  0  0  0  0  0  0  0
   -2.5408    1.9931    3.5389 H   0  0  0  0  0  0  0  0  0  0  0  0
   -1.6583    1.2524    2.1966 H   0  0  0  0  0  0  0  0  0  0  0  0
    0.6968    0.9992    2.6494 H   0  0  0  0  0  0  0  0  0  0  0  0
    0.7264    6.4284    5.0958 H   0  0  0  0  0  0  0  0  0  0  0  0
    0.3063    5.5120    6.5520 H   0  0  0  0  0  0  0  0  0  0  0  0
    2.6577    5.6339    7.0611 H   0  0  0  0  0  0  0  0  0  0  0  0
    3.5658    3.5106    6.0147 H   0  0  0  0  0  0  0  0  0  0  0  0
    4.0274    5.7572    2.9067 H   0  0  0  0  0  0  0  0  0  0  0  0
    3.3635    7.2236    3.6603 H   0  0  0  0  0  0  0  0  0  0  0  0
    2.3173    5.8680    3.2651 H   0  0  0  0  0  0  0  0  0  0  0  0
    5.7094    5.5144    4.8674 H   0  0  0  0  0  0  0  0  0  0  0  0
    5.0954    5.4750    6.5075 H   0  0  0  0  0  0  0  0  0  0  0  0
    5.0425    6.9904    5.5912 H   0  0  0  0  0  0  0  0  0  0  0  0
  1  2  1  0
  1 16  1  0
  1 17  1  0
  1 18  1  0
  2 14  1  0
  2  3  2  0
  3  4  1  0
  3 19  1  0
  4  5  2  0
  4  6  1  0
  6 10  1  0
  6  7  2  0
  7  8  1  0
  7 14  1  0
  8  9  1  0
  8 20  1  0
  8 21  1  0
  9 11  1  0
  9 10  1  0
  9 22  1  1
 10 11  1  0
 10 23  1  1
 11 12  1  0
 11 13  1  0
 12 24  1  0
 12 25  1  0
 12 26  1  0
 13 27  1  0
 13 28  1  0
 13 29  1  0
 14 15  2  0
M  END
>  <i_m_ct_stereo_status>  (173) 
1

>  <s_m_source_file>  (173) 
/var/tmp/pbs.5076255.sched01/tmpbrsd6n1o/39u_ie0p0h.sdf

>  <i_m_source_file_index>  (173) 
28

>  <i_lp_mmshare_version>  (173) 
48012

>  <i_f3d_flags>  (173) 
0

>  <s_epik_input>  (173) 
Tz1DMVtDSF09QyhbQ0gzXSlDKD1PKUMoPUMxMilbQ0gyXVtDQEhdM1tDQEBIXTJDMyhbQ0gzXSlbQ0gzXQ==

>  <s_epik_cmdline>  (173) 
J2VwaWtfcHl0aG9uJywgJy1waHQnLCAnMi4wJywgJy1waCcsICc3LjAnLCAnLXRuJywgJzgnLCAnLW1hJywgJzIwMCcsICctaW1hZScsICc8aW5maWxlLm1hZT4nLCAnLW9tYWUnLCAnPG91dGZpbGUubWFlPic=

>  <r_lp_tautomer_probability>  (173) 
1

>  <r_epik_Ionization_Penalty>  (173) 
0

>  <r_epik_Ionization_Penalty_Charging>  (173) 
0

>  <r_epik_Ionization_Penalty_Neutral>  (173) 
0

>  <r_epik_State_Penalty>  (173) 
-0

>  <r_epik_Charging_Adjusted_Penalty>  (173) 
0

>  <i_epik_Tot_Q>  (173) 
0

>  <i_epik_Tot_abs_Q>  (173) 
0

>  <s_lp_Force_Field>  (173) 
OPLS3e

>  <r_lp_Energy>  (173) 
15.6203

>  <b_lp_Chiralities_Consistent>  (173) 
1

>  <s_lp_Variant>  (173) 
53:0-1

>  <s_i_glide_gridfile>  (173) 
pfpi4k_grid

>  <i_i_glide_lignum>  (173) 
28

>  <i_i_glide_rotatable_bonds>  (173) 
0

>  <r_i_docking_score>  (173) 
-3.40532

>  <r_i_glide_ligand_efficiency>  (173) 
-0.227022

>  <r_i_glide_ligand_efficiency_sa>  (173) 
-0.559883

>  <r_i_glide_ligand_efficiency_ln>  (173) 
-0.918359

>  <r_i_glide_gscore>  (173) 
-3.40532

>  <r_i_glide_lipo>  (173) 
-0.0815411

>  <r_i_glide_hbond>  (173) 
-0.108379

>  <r_i_glide_metal>  (173) 
-0

>  <r_i_glide_rewards>  (173) 
-2.03012

>  <r_i_glide_evdw>  (173) 
-14.4725

>  <r_i_glide_ecoul>  (173) 
-2.58442

>  <r_i_glide_erotb>  (173) 
0

>  <r_i_glide_esite>  (173) 
-0.0739952

>  <r_i_glide_emodel>  (173) 
-21.139

>  <r_i_glide_energy>  (173) 
-17.0569

>  <r_i_glide_einternal>  (173) 
0

>  <r_i_glide_intrahb_reward>  (173) 
-0

>  <i_i_glide_confnum>  (173) 
2

>  <i_i_glide_posenum>  (173) 
34

>  <r_i_glide_eff_state_penalty>  (173) 
0

>  <ligand_id>  (173) 
53

>  <original_smiles>  (173) 
CC1=CC(=O)C2=C(CC3C2C3(C)C)C1=O

>  <smiles>  (173) 
[H]C1=C(C([H])([H])[H])C(=O)C2=C(C1=O)C1([H])C([H])(C2([H])[H])C1(C([H])([H])[H])C([H])([H])[H]

$$$$
53:0:1
     RDKit          3D

 29 31  0  0  1  0  0  0  0  0999 V2000
   -2.6994    3.2968    7.0306 C   0  0  0  0  0  0  0  0  0  0  0  0
   -1.5732    2.5984    6.3015 C   0  0  0  0  0  0  0  0  0  0  0  0
   -1.3417    1.2684    6.4460 C   0  0  0  0  0  0  0  0  0  0  0  0
   -0.2330    0.5722    5.7601 C   0  0  0  0  0  0  0  0  0  0  0  0
   -0.0515   -0.6389    5.8875 O   0  0  0  0  0  0  0  0  0  0  0  0
    0.6110    1.4390    4.9186 C   0  0  0  0  0  0  0  0  0  0  0  0
    0.3928    2.7494    4.7525 C   0  0  0  0  0  0  0  0  0  0  0  0
    1.3556    3.3930    3.7819 C   0  0  0  0  0  0  0  0  0  0  0  0
    2.2476    2.2132    3.3858 C   0  0  1  0  0  0  0  0  0  0  0  0
    1.7509    0.9696    4.1162 C   0  0  2  0  0  0  0  0  0  0  0  0
    1.7678    0.9972    2.6087 C   0  0  0  0  0  0  0  0  0  0  0  0
    0.4585    1.0542    1.8399 C   0  0  0  0  0  0  0  0  0  0  0  0
    2.7897    0.1469    1.8787 C   0  0  0  0  0  0  0  0  0  0  0  0
   -0.7236    3.4489    5.4142 C   0  0  0  0  0  0  0  0  0  0  0  0
   -0.9359    4.6469    5.2408 O   0  0  0  0  0  0  0  0  0  0  0  0
   -3.3856    3.7449    6.3123 H   0  0  0  0  0  0  0  0  0  0  0  0
   -2.3079    4.0810    7.6791 H   0  0  0  0  0  0  0  0  0  0  0  0
   -3.2655    2.5992    7.6484 H   0  0  0  0  0  0  0  0  0  0  0  0
   -1.9660    0.6737    7.0967 H   0  0  0  0  0  0  0  0  0  0  0  0
    0.8546    3.8011    2.9009 H   0  0  0  0  0  0  0  0  0  0  0  0
    1.9339    4.1826    4.2601 H   0  0  0  0  0  0  0  0  0  0  0  0
    3.3184    2.4112    3.3843 H   0  0  0  0  0  0  0  0  0  0  0  0
    2.4872    0.3752    4.6575 H   0  0  0  0  0  0  0  0  0  0  0  0
    0.0409    0.0595    1.6911 H   0  0  0  0  0  0  0  0  0  0  0  0
    0.6199    1.5188    0.8757 H   0  0  0  0  0  0  0  0  0  0  0  0
   -0.2833    1.6661    2.3471 H   0  0  0  0  0  0  0  0  0  0  0  0
    2.4200   -0.8702    1.7525 H   0  0  0  0  0  0  0  0  0  0  0  0
    3.7145    0.1056    2.4547 H   0  0  0  0  0  0  0  0  0  0  0  0
    3.0186    0.5643    0.8982 H   0  0  0  0  0  0  0  0  0  0  0  0
  1  2  1  0
  1 16  1  0
  1 17  1  0
  1 18  1  0
  2 14  1  0
  2  3  2  0
  3  4  1  0
  3 19  1  0
  4  5  2  0
  4  6  1  0
  6 10  1  0
  6  7  2  0
  7  8  1  0
  7 14  1  0
  8  9  1  0
  8 20  1  0
  8 21  1  0
  9 11  1  0
  9 10  1  0
  9 22  1  1
 10 11  1  0
 10 23  1  1
 11 12  1  0
 11 13  1  0
 12 24  1  0
 12 25  1  0
 12 26  1  0
 13 27  1  0
 13 28  1  0
 13 29  1  0
 14 15  2  0
M  END
>  <i_m_ct_stereo_status>  (174) 
1

>  <s_m_source_file>  (174) 
/var/tmp/pbs.5076255.sched01/tmpbrsd6n1o/39u_ie0p0h.sdf

>  <i_m_source_file_index>  (174) 
28

>  <i_lp_mmshare_version>  (174) 
48012

>  <i_f3d_flags>  (174) 
0

>  <s_epik_input>  (174) 
Tz1DMVtDSF09QyhbQ0gzXSlDKD1PKUMoPUMxMilbQ0gyXVtDQEhdM1tDQEBIXTJDMyhbQ0gzXSlbQ0gzXQ==

>  <s_epik_cmdline>  (174) 
J2VwaWtfcHl0aG9uJywgJy1waHQnLCAnMi4wJywgJy1waCcsICc3LjAnLCAnLXRuJywgJzgnLCAnLW1hJywgJzIwMCcsICctaW1hZScsICc8aW5maWxlLm1hZT4nLCAnLW9tYWUnLCAnPG91dGZpbGUubWFlPic=

>  <r_lp_tautomer_probability>  (174) 
1

>  <r_epik_Ionization_Penalty>  (174) 
0

>  <r_epik_Ionization_Penalty_Charging>  (174) 
0

>  <r_epik_Ionization_Penalty_Neutral>  (174) 
0

>  <r_epik_State_Penalty>  (174) 
-0

>  <r_epik_Charging_Adjusted_Penalty>  (174) 
0

>  <i_epik_Tot_Q>  (174) 
0

>  <i_epik_Tot_abs_Q>  (174) 
0

>  <s_lp_Force_Field>  (174) 
OPLS3e

>  <r_lp_Energy>  (174) 
15.6203

>  <b_lp_Chiralities_Consistent>  (174) 
1

>  <s_lp_Variant>  (174) 
53:0-1

>  <s_i_glide_gridfile>  (174) 
pfpi4k_grid

>  <i_i_glide_lignum>  (174) 
28

>  <i_i_glide_rotatable_bonds>  (174) 
0

>  <r_i_docking_score>  (174) 
-3.12892

>  <r_i_glide_ligand_efficiency>  (174) 
-0.208595

>  <r_i_glide_ligand_efficiency_sa>  (174) 
-0.514439

>  <r_i_glide_ligand_efficiency_ln>  (174) 
-0.843819

>  <r_i_glide_gscore>  (174) 
-3.12892

>  <r_i_glide_lipo>  (174) 
-0.180051

>  <r_i_glide_hbond>  (174) 
0

>  <r_i_glide_metal>  (174) 
-0

>  <r_i_glide_rewards>  (174) 
-2.03012

>  <r_i_glide_evdw>  (174) 
-16.3908

>  <r_i_glide_ecoul>  (174) 
-0.481975

>  <r_i_glide_erotb>  (174) 
0

>  <r_i_glide_esite>  (174) 
-0.0269172

>  <r_i_glide_emodel>  (174) 
-20.6073

>  <r_i_glide_energy>  (174) 
-16.8728

>  <r_i_glide_einternal>  (174) 
0

>  <r_i_glide_intrahb_reward>  (174) 
-0

>  <i_i_glide_confnum>  (174) 
2

>  <i_i_glide_posenum>  (174) 
28

>  <r_i_glide_eff_state_penalty>  (174) 
0

>  <ligand_id>  (174) 
53

>  <original_smiles>  (174) 
CC1=CC(=O)C2=C(CC3C2C3(C)C)C1=O

>  <smiles>  (174) 
[H]C1=C(C([H])([H])[H])C(=O)C2=C(C1=O)C1([H])C([H])(C2([H])[H])C1(C([H])([H])[H])C([H])([H])[H]

$$$$
53:0:2
     RDKit          3D

 29 31  0  0  1  0  0  0  0  0999 V2000
   -3.3096    3.0980    2.5281 C   0  0  0  0  0  0  0  0  0  0  0  0
   -1.9845    2.5716    3.0507 C   0  0  0  0  0  0  0  0  0  0  0  0
   -1.3040    1.5667    2.4391 C   0  0  0  0  0  0  0  0  0  0  0  0
   -0.0179    1.0404    2.9519 C   0  0  0  0  0  0  0  0  0  0  0  0
    0.5947    0.1267    2.4030 O   0  0  0  0  0  0  0  0  0  0  0  0
    0.4530    1.6829    4.1873 C   0  0  0  0  0  0  0  0  0  0  0  0
   -0.1992    2.6683    4.8039 C   0  0  0  0  0  0  0  0  0  0  0  0
    0.5343    3.1928    6.0197 C   0  0  0  0  0  0  0  0  0  0  0  0
    1.7758    2.2989    6.0519 C   0  0  1  0  0  0  0  0  0  0  0  0
    1.7134    1.3472    4.8628 C   0  0  2  0  0  0  0  0  0  0  0  0
    2.8664    2.3151    4.9920 C   0  0  0  0  0  0  0  0  0  0  0  0
    2.9895    3.4984    4.0390 C   0  0  0  0  0  0  0  0  0  0  0  0
    4.2334    1.7566    5.3416 C   0  0  0  0  0  0  0  0  0  0  0  0
   -1.4603    3.2192    4.2882 C   0  0  0  0  0  0  0  0  0  0  0  0
   -2.0391    4.1383    4.8537 O   0  0  0  0  0  0  0  0  0  0  0  0
   -3.2426    4.1582    2.2849 H   0  0  0  0  0  0  0  0  0  0  0  0
   -4.0938    2.9563    3.2718 H   0  0  0  0  0  0  0  0  0  0  0  0
   -3.6100    2.5579    1.6301 H   0  0  0  0  0  0  0  0  0  0  0  0
   -1.6868    1.1039    1.5332 H   0  0  0  0  0  0  0  0  0  0  0  0
    0.8170    4.2386    5.9136 H   0  0  0  0  0  0  0  0  0  0  0  0
   -0.0636    3.0723    6.9231 H   0  0  0  0  0  0  0  0  0  0  0  0
    2.0368    1.8876    7.0235 H   0  0  0  0  0  0  0  0  0  0  0  0
    1.8662    0.2866    5.0634 H   0  0  0  0  0  0  0  0  0  0  0  0
    3.4240    3.1846    3.0945 H   0  0  0  0  0  0  0  0  0  0  0  0
    3.5766    4.3014    4.4821 H   0  0  0  0  0  0  0  0  0  0  0  0
    2.0106    3.8987    3.7825 H   0  0  0  0  0  0  0  0  0  0  0  0
    4.7447    1.4045    4.4453 H   0  0  0  0  0  0  0  0  0  0  0  0
    4.1245    0.9083    6.0219 H   0  0  0  0  0  0  0  0  0  0  0  0
    4.8435    2.5123    5.8338 H   0  0  0  0  0  0  0  0  0  0  0  0
  1  2  1  0
  1 16  1  0
  1 17  1  0
  1 18  1  0
  2 14  1  0
  2  3  2  0
  3  4  1  0
  3 19  1  0
  4  5  2  0
  4  6  1  0
  6 10  1  0
  6  7  2  0
  7  8  1  0
  7 14  1  0
  8  9  1  0
  8 20  1  0
  8 21  1  0
  9 11  1  0
  9 10  1  0
  9 22  1  1
 10 11  1  0
 10 23  1  1
 11 12  1  0
 11 13  1  0
 12 24  1  0
 12 25  1  0
 12 26  1  0
 13 27  1  0
 13 28  1  0
 13 29  1  0
 14 15  2  0
M  END
>  <i_m_ct_stereo_status>  (175) 
1

>  <s_m_source_file>  (175) 
/var/tmp/pbs.5076255.sched01/tmpbrsd6n1o/39u_ie0p0h.sdf

>  <i_m_source_file_index>  (175) 
28

>  <i_lp_mmshare_version>  (175) 
48012

>  <i_f3d_flags>  (175) 
0

>  <s_epik_input>  (175) 
Tz1DMVtDSF09QyhbQ0gzXSlDKD1PKUMoPUMxMilbQ0gyXVtDQEhdM1tDQEBIXTJDMyhbQ0gzXSlbQ0gzXQ==

>  <s_epik_cmdline>  (175) 
J2VwaWtfcHl0aG9uJywgJy1waHQnLCAnMi4wJywgJy1waCcsICc3LjAnLCAnLXRuJywgJzgnLCAnLW1hJywgJzIwMCcsICctaW1hZScsICc8aW5maWxlLm1hZT4nLCAnLW9tYWUnLCAnPG91dGZpbGUubWFlPic=

>  <r_lp_tautomer_probability>  (175) 
1

>  <r_epik_Ionization_Penalty>  (175) 
0

>  <r_epik_Ionization_Penalty_Charging>  (175) 
0

>  <r_epik_Ionization_Penalty_Neutral>  (175) 
0

>  <r_epik_State_Penalty>  (175) 
-0

>  <r_epik_Charging_Adjusted_Penalty>  (175) 
0

>  <i_epik_Tot_Q>  (175) 
0

>  <i_epik_Tot_abs_Q>  (175) 
0

>  <s_lp_Force_Field>  (175) 
OPLS3e

>  <r_lp_Energy>  (175) 
15.6203

>  <b_lp_Chiralities_Consistent>  (175) 
1

>  <s_lp_Variant>  (175) 
53:0-1

>  <s_i_glide_gridfile>  (175) 
pfpi4k_grid

>  <i_i_glide_lignum>  (175) 
28

>  <i_i_glide_rotatable_bonds>  (175) 
0

>  <r_i_docking_score>  (175) 
-3.10671

>  <r_i_glide_ligand_efficiency>  (175) 
-0.207114

>  <r_i_glide_ligand_efficiency_sa>  (175) 
-0.510788

>  <r_i_glide_ligand_efficiency_ln>  (175) 
-0.837829

>  <r_i_glide_gscore>  (175) 
-3.10671

>  <r_i_glide_lipo>  (175) 
0

>  <r_i_glide_hbond>  (175) 
-0.00389892

>  <r_i_glide_metal>  (175) 
-0

>  <r_i_glide_rewards>  (175) 
-2.03012

>  <r_i_glide_evdw>  (175) 
-15.7138

>  <r_i_glide_ecoul>  (175) 
-1.38852

>  <r_i_glide_erotb>  (175) 
0

>  <r_i_glide_esite>  (175) 
-0.0787259

>  <r_i_glide_emodel>  (175) 
-20.8096

>  <r_i_glide_energy>  (175) 
-17.1023

>  <r_i_glide_einternal>  (175) 
0

>  <r_i_glide_intrahb_reward>  (175) 
-0

>  <i_i_glide_confnum>  (175) 
2

>  <i_i_glide_posenum>  (175) 
5

>  <r_i_glide_eff_state_penalty>  (175) 
0

>  <ligand_id>  (175) 
53

>  <original_smiles>  (175) 
CC1=CC(=O)C2=C(CC3C2C3(C)C)C1=O

>  <smiles>  (175) 
[H]C1=C(C([H])([H])[H])C(=O)C2=C(C1=O)C1([H])C([H])(C2([H])[H])C1(C([H])([H])[H])C([H])([H])[H]

$$$$
54:1:0
     RDKit          3D

 41 44  0  0  1  0  0  0  0  0999 V2000
    8.8081   -4.2073    0.8088 O   0  0  0  0  0  0  0  0  0  0  0  0
    7.5915   -4.3929    0.7773 C   0  0  0  0  0  0  0  0  0  0  0  0
    7.0686   -5.6385    0.9787 O   0  0  0  0  0  0  0  0  0  0  0  0
    5.7174   -5.8807    1.0995 C   0  0  0  0  0  0  0  0  0  0  0  0
    5.2975   -7.1786    1.4485 C   0  0  0  0  0  0  0  0  0  0  0  0
    3.9328   -7.4813    1.6085 C   0  0  0  0  0  0  0  0  0  0  0  0
    3.6256   -8.7706    1.9716 O   0  0  0  0  0  0  0  0  0  0  0  0
    2.3916   -9.3336    1.5426 C   0  0  0  0  0  0  0  0  0  0  0  0
    1.4987   -9.6833    2.7412 C   0  0  0  0  0  0  0  0  0  0  0  0
    0.6671   -8.5619    3.1251 N   0  0  0  0  0  0  0  0  0  0  0  0
    0.8836   -7.6847    4.1778 C   0  0  0  0  0  0  0  0  0  0  0  0
   -0.1491   -6.7757    4.1450 C   0  0  0  0  0  0  0  0  0  0  0  0
   -0.9882   -7.0538    3.0670 N   0  0  0  0  0  0  0  0  0  0  0  0
   -0.4562   -8.1453    2.5272 C   0  0  0  0  0  0  0  0  0  0  0  0
    2.9758   -6.4560    1.4321 C   0  0  0  0  0  0  0  0  0  0  0  0
    3.3873   -5.1570    1.0736 C   0  0  0  0  0  0  0  0  0  0  0  0
    4.7601   -4.8638    0.9004 C   0  0  0  0  0  0  0  0  0  0  0  0
    5.2729   -3.5241    0.5633 C   0  0  0  0  0  0  0  0  0  0  0  0
    6.6086   -3.3043    0.5118 C   0  0  0  0  0  0  0  0  0  0  0  0
    7.2084   -1.9354    0.2014 C   0  0  0  0  0  0  0  0  0  0  0  0
    6.2120   -0.7925    0.4488 C   0  0  0  0  0  0  0  0  0  0  0  0
    4.8784   -1.1019   -0.2244 C   0  0  0  0  0  0  0  0  0  0  0  0
    4.2641   -2.3910    0.3473 C   0  0  0  0  0  0  0  0  0  0  0  0
    6.0365   -7.9522    1.6065 H   0  0  0  0  0  0  0  0  0  0  0  0
    1.8398   -8.7138    0.8397 H   0  0  0  0  0  0  0  0  0  0  0  0
    2.6397  -10.2399    0.9949 H   0  0  0  0  0  0  0  0  0  0  0  0
    0.8432  -10.5154    2.4779 H   0  0  0  0  0  0  0  0  0  0  0  0
    2.1048  -10.0063    3.5914 H   0  0  0  0  0  0  0  0  0  0  0  0
    1.7339   -7.7764    4.8404 H   0  0  0  0  0  0  0  0  0  0  0  0
   -0.3434   -5.9432    4.8103 H   0  0  0  0  0  0  0  0  0  0  0  0
   -0.8764   -8.6358    1.6641 H   0  0  0  0  0  0  0  0  0  0  0  0
    1.9242   -6.6409    1.5938 H   0  0  0  0  0  0  0  0  0  0  0  0
    2.6343   -4.3949    0.9492 H   0  0  0  0  0  0  0  0  0  0  0  0
    8.1072   -1.7583    0.7965 H   0  0  0  0  0  0  0  0  0  0  0  0
    7.5191   -1.9503   -0.8450 H   0  0  0  0  0  0  0  0  0  0  0  0
    6.0593   -0.6610    1.5208 H   0  0  0  0  0  0  0  0  0  0  0  0
    6.6167    0.1440    0.0761 H   0  0  0  0  0  0  0  0  0  0  0  0
    4.1871   -0.2704   -0.0940 H   0  0  0  0  0  0  0  0  0  0  0  0
    5.0290   -1.2028   -1.3006 H   0  0  0  0  0  0  0  0  0  0  0  0
    3.4825   -2.7140   -0.3393 H   0  0  0  0  0  0  0  0  0  0  0  0
    3.7938   -2.1751    1.3081 H   0  0  0  0  0  0  0  0  0  0  0  0
  1  2  2  0
  2 19  1  0
  2  3  1  0
  3  4  1  0
  4 17  2  0
  4  5  1  0
  5  6  2  0
  5 24  1  0
  6  7  1  0
  6 15  1  0
  7  8  1  0
  8  9  1  0
  8 25  1  0
  8 26  1  0
  9 10  1  0
  9 27  1  0
  9 28  1  0
 10 14  1  0
 10 11  1  0
 11 12  2  0
 11 29  1  0
 12 13  1  0
 12 30  1  0
 13 14  2  0
 14 31  1  0
 15 16  2  0
 15 32  1  0
 16 17  1  0
 16 33  1  0
 17 18  1  0
 18 23  1  0
 18 19  2  0
 19 20  1  0
 20 21  1  0
 20 34  1  0
 20 35  1  0
 21 22  1  0
 21 36  1  0
 21 37  1  0
 22 23  1  0
 22 38  1  0
 22 39  1  0
 23 40  1  0
 23 41  1  0
M  END
>  <i_m_ct_stereo_status>  (176) 
1

>  <s_m_source_file>  (176) 
/var/tmp/pbs.5076255.sched01/tmpbrsd6n1o/39u_ie0p0h.sdf

>  <i_m_source_file_index>  (176) 
30

>  <i_lp_mmshare_version>  (176) 
48012

>  <i_f3d_flags>  (176) 
0

>  <s_epik_input>  (176) 
W0NIMl0xW0NIMl1bQ0gyXVtDSDJdYyhjKD1PKW8yKWMxYyhjMjMpW2NIXVtjSF1jKFtjSF0zKU9bQ0gyXVtDSDJdbjRbY0hdW2NIXW5bY0hdNA==

>  <s_epik_cmdline>  (176) 
J2VwaWtfcHl0aG9uJywgJy1waHQnLCAnMi4wJywgJy1waCcsICc3LjAnLCAnLXRuJywgJzgnLCAnLW1hJywgJzIwMCcsICctaW1hZScsICc8aW5maWxlLm1hZT4nLCAnLW9tYWUnLCAnPG91dGZpbGUubWFlPic=

>  <r_lp_tautomer_probability>  (176) 
1

>  <r_epik_Ionization_Penalty>  (176) 
0.483938

>  <r_epik_Ionization_Penalty_Charging>  (176) 
0.483938

>  <r_epik_Ionization_Penalty_Neutral>  (176) 
8.99351e-09

>  <r_epik_State_Penalty>  (176) 
0.48914

>  <r_epik_Charging_Adjusted_Penalty>  (176) 
0.973078

>  <i_epik_Tot_Q>  (176) 
0

>  <i_epik_Tot_abs_Q>  (176) 
0

>  <s_lp_Force_Field>  (176) 
OPLS3e

>  <r_lp_Energy>  (176) 
40.5552

>  <b_lp_Chiralities_Consistent>  (176) 
1

>  <s_lp_Variant>  (176) 
54:0-2

>  <s_i_glide_gridfile>  (176) 
pfpi4k_grid

>  <i_i_glide_lignum>  (176) 
30

>  <i_i_glide_rotatable_bonds>  (176) 
4

>  <r_i_docking_score>  (176) 
-3.93862

>  <r_i_glide_ligand_efficiency>  (176) 
-0.171244

>  <r_i_glide_ligand_efficiency_sa>  (176) 
-0.486996

>  <r_i_glide_ligand_efficiency_ln>  (176) 
-0.952394

>  <r_i_glide_gscore>  (176) 
-3.93862

>  <r_i_glide_lipo>  (176) 
-0.799945

>  <r_i_glide_hbond>  (176) 
-0.159186

>  <r_i_glide_metal>  (176) 
-0

>  <r_i_glide_rewards>  (176) 
-1.29309

>  <r_i_glide_evdw>  (176) 
-27.8981

>  <r_i_glide_ecoul>  (176) 
-3.99487

>  <r_i_glide_erotb>  (176) 
0.384766

>  <r_i_glide_esite>  (176) 
-0.0770288

>  <r_i_glide_emodel>  (176) 
-37.6727

>  <r_i_glide_energy>  (176) 
-31.893

>  <r_i_glide_einternal>  (176) 
4.87501

>  <r_i_glide_intrahb_reward>  (176) 
-0

>  <i_i_glide_confnum>  (176) 
4

>  <i_i_glide_posenum>  (176) 
24

>  <r_i_glide_eff_state_penalty>  (176) 
0

>  <ligand_id>  (176) 
54

>  <original_smiles>  (176) 
O=c1oc2cc(OCCn3ccnc3)ccc2c2c1CCCC2

>  <smiles>  (176) 
[H]c1nc([H])n(C([H])([H])C([H])([H])Oc2c([H])c([H])c3c4c(c(=O)oc3c2[H])C([H])([H])C([H])([H])C([H])([H])C4([H])[H])c1[H]

$$$$
54:1:1
     RDKit          3D

 41 44  0  0  1  0  0  0  0  0999 V2000
    2.8204   -0.6557    2.0640 O   0  0  0  0  0  0  0  0  0  0  0  0
    3.1858   -1.7838    1.7321 C   0  0  0  0  0  0  0  0  0  0  0  0
    2.7347   -2.8673    2.3997 O   0  0  0  0  0  0  0  0  0  0  0  0
    2.9915   -4.1565    2.0085 C   0  0  0  0  0  0  0  0  0  0  0  0
    2.3535   -5.1656    2.7369 C   0  0  0  0  0  0  0  0  0  0  0  0
    2.4783   -6.5161    2.3465 C   0  0  0  0  0  0  0  0  0  0  0  0
    1.7529   -7.5228    2.9520 O   0  0  0  0  0  0  0  0  0  0  0  0
    0.8544   -7.1743    4.0131 C   0  0  0  0  0  0  0  0  0  0  0  0
   -0.2421   -8.2229    4.1952 C   0  0  0  0  0  0  0  0  0  0  0  0
    0.2764   -9.5543    4.0681 N   0  0  0  0  0  0  0  0  0  0  0  0
    0.5302  -10.2282    2.8829 C   0  0  0  0  0  0  0  0  0  0  0  0
    1.0186  -11.4574    3.2501 C   0  0  0  0  0  0  0  0  0  0  0  0
    1.0816  -11.5594    4.6292 N   0  0  0  0  0  0  0  0  0  0  0  0
    0.6181  -10.3947    5.0586 C   0  0  0  0  0  0  0  0  0  0  0  0
    3.3283   -6.8420    1.2684 C   0  0  0  0  0  0  0  0  0  0  0  0
    4.0053   -5.8258    0.5521 C   0  0  0  0  0  0  0  0  0  0  0  0
    3.8282   -4.4696    0.9259 C   0  0  0  0  0  0  0  0  0  0  0  0
    4.4494   -3.3200    0.2417 C   0  0  0  0  0  0  0  0  0  0  0  0
    4.1410   -2.0571    0.6237 C   0  0  0  0  0  0  0  0  0  0  0  0
    4.7306   -0.8206   -0.0375 C   0  0  0  0  0  0  0  0  0  0  0  0
    5.2530   -1.1298   -1.4415 C   0  0  0  0  0  0  0  0  0  0  0  0
    6.1634   -2.3579   -1.4043 C   0  0  0  0  0  0  0  0  0  0  0  0
    5.3866   -3.5977   -0.9262 C   0  0  0  0  0  0  0  0  0  0  0  0
    1.7354   -4.8442    3.5584 H   0  0  0  0  0  0  0  0  0  0  0  0
    1.4181   -7.0334    4.9409 H   0  0  0  0  0  0  0  0  0  0  0  0
    0.3044   -6.2578    3.8049 H   0  0  0  0  0  0  0  0  0  0  0  0
   -0.7321   -8.0966    5.1621 H   0  0  0  0  0  0  0  0  0  0  0  0
   -1.0023   -8.0802    3.4227 H   0  0  0  0  0  0  0  0  0  0  0  0
    0.3721   -9.7829    1.9101 H   0  0  0  0  0  0  0  0  0  0  0  0
    1.3331  -12.2794    2.6225 H   0  0  0  0  0  0  0  0  0  0  0  0
    0.5245  -10.1356    6.0988 H   0  0  0  0  0  0  0  0  0  0  0  0
    3.4414   -7.8749    0.9580 H   0  0  0  0  0  0  0  0  0  0  0  0
    4.6384   -6.1013   -0.2853 H   0  0  0  0  0  0  0  0  0  0  0  0
    3.9732   -0.0383   -0.0810 H   0  0  0  0  0  0  0  0  0  0  0  0
    5.5319   -0.4488    0.6066 H   0  0  0  0  0  0  0  0  0  0  0  0
    4.4166   -1.3153   -2.1161 H   0  0  0  0  0  0  0  0  0  0  0  0
    5.7776   -0.2639   -1.8297 H   0  0  0  0  0  0  0  0  0  0  0  0
    6.5896   -2.5587   -2.3853 H   0  0  0  0  0  0  0  0  0  0  0  0
    7.0020   -2.1708   -0.7310 H   0  0  0  0  0  0  0  0  0  0  0  0
    6.1138   -4.3528   -0.6330 H   0  0  0  0  0  0  0  0  0  0  0  0
    4.7847   -4.0029   -1.7438 H   0  0  0  0  0  0  0  0  0  0  0  0
  1  2  2  0
  2 19  1  0
  2  3  1  0
  3  4  1  0
  4 17  2  0
  4  5  1  0
  5  6  2  0
  5 24  1  0
  6  7  1  0
  6 15  1  0
  7  8  1  0
  8  9  1  0
  8 25  1  0
  8 26  1  0
  9 10  1  0
  9 27  1  0
  9 28  1  0
 10 14  1  0
 10 11  1  0
 11 12  2  0
 11 29  1  0
 12 13  1  0
 12 30  1  0
 13 14  2  0
 14 31  1  0
 15 16  2  0
 15 32  1  0
 16 17  1  0
 16 33  1  0
 17 18  1  0
 18 23  1  0
 18 19  2  0
 19 20  1  0
 20 21  1  0
 20 34  1  0
 20 35  1  0
 21 22  1  0
 21 36  1  0
 21 37  1  0
 22 23  1  0
 22 38  1  0
 22 39  1  0
 23 40  1  0
 23 41  1  0
M  END
>  <i_m_ct_stereo_status>  (177) 
1

>  <s_m_source_file>  (177) 
/var/tmp/pbs.5076255.sched01/tmpbrsd6n1o/39u_ie0p0h.sdf

>  <i_m_source_file_index>  (177) 
30

>  <i_lp_mmshare_version>  (177) 
48012

>  <i_f3d_flags>  (177) 
0

>  <s_epik_input>  (177) 
W0NIMl0xW0NIMl1bQ0gyXVtDSDJdYyhjKD1PKW8yKWMxYyhjMjMpW2NIXVtjSF1jKFtjSF0zKU9bQ0gyXVtDSDJdbjRbY0hdW2NIXW5bY0hdNA==

>  <s_epik_cmdline>  (177) 
J2VwaWtfcHl0aG9uJywgJy1waHQnLCAnMi4wJywgJy1waCcsICc3LjAnLCAnLXRuJywgJzgnLCAnLW1hJywgJzIwMCcsICctaW1hZScsICc8aW5maWxlLm1hZT4nLCAnLW9tYWUnLCAnPG91dGZpbGUubWFlPic=

>  <r_lp_tautomer_probability>  (177) 
1

>  <r_epik_Ionization_Penalty>  (177) 
0.483938

>  <r_epik_Ionization_Penalty_Charging>  (177) 
0.483938

>  <r_epik_Ionization_Penalty_Neutral>  (177) 
8.99351e-09

>  <r_epik_State_Penalty>  (177) 
0.48914

>  <r_epik_Charging_Adjusted_Penalty>  (177) 
0.973078

>  <i_epik_Tot_Q>  (177) 
0

>  <i_epik_Tot_abs_Q>  (177) 
0

>  <s_lp_Force_Field>  (177) 
OPLS3e

>  <r_lp_Energy>  (177) 
40.5552

>  <b_lp_Chiralities_Consistent>  (177) 
1

>  <s_lp_Variant>  (177) 
54:0-2

>  <s_i_glide_gridfile>  (177) 
pfpi4k_grid

>  <i_i_glide_lignum>  (177) 
30

>  <i_i_glide_rotatable_bonds>  (177) 
4

>  <r_i_docking_score>  (177) 
-2.82676

>  <r_i_glide_ligand_efficiency>  (177) 
-0.122903

>  <r_i_glide_ligand_efficiency_sa>  (177) 
-0.349519

>  <r_i_glide_ligand_efficiency_ln>  (177) 
-0.683536

>  <r_i_glide_gscore>  (177) 
-2.82676

>  <r_i_glide_lipo>  (177) 
-0.499564

>  <r_i_glide_hbond>  (177) 
0

>  <r_i_glide_metal>  (177) 
-0

>  <r_i_glide_rewards>  (177) 
-1.29309

>  <r_i_glide_evdw>  (177) 
-24.964

>  <r_i_glide_ecoul>  (177) 
-0.249034

>  <r_i_glide_erotb>  (177) 
0.384766

>  <r_i_glide_esite>  (177) 
-0.133316

>  <r_i_glide_emodel>  (177) 
-27.9596

>  <r_i_glide_energy>  (177) 
-25.2131

>  <r_i_glide_einternal>  (177) 
5.28751

>  <r_i_glide_intrahb_reward>  (177) 
-0

>  <i_i_glide_confnum>  (177) 
4

>  <i_i_glide_posenum>  (177) 
1

>  <r_i_glide_eff_state_penalty>  (177) 
0

>  <ligand_id>  (177) 
54

>  <original_smiles>  (177) 
O=c1oc2cc(OCCn3ccnc3)ccc2c2c1CCCC2

>  <smiles>  (177) 
[H]c1nc([H])n(C([H])([H])C([H])([H])Oc2c([H])c([H])c3c4c(c(=O)oc3c2[H])C([H])([H])C([H])([H])C([H])([H])C4([H])[H])c1[H]

$$$$
55:0:0
     RDKit          3D

 36 38  0  0  1  0  0  0  0  0999 V2000
    2.8480   -3.2985   -3.2130 C   0  0  0  0  0  0  0  0  0  0  0  0
    3.5736   -2.7414   -2.0029 C   0  0  0  0  0  0  0  0  0  0  0  0
    3.8077   -1.4117   -1.8445 C   0  0  0  0  0  0  0  0  0  0  0  0
    4.6488   -0.8500   -0.7012 C   0  0  1  0  0  0  0  0  0  0  0  0
    3.9913   -0.0750    0.4595 C   0  0  0  0  0  0  0  0  0  0  0  0
    4.8714   -0.8879    1.4368 C   0  0  1  0  0  0  0  0  0  0  0  0
    4.3444   -1.4513    2.7554 C   0  0  2  0  0  0  0  0  0  0  0  0
    5.2455   -0.5304    4.2750 Br  0  0  0  0  0  0  0  0  0  0  0  0
    4.4811   -3.0122    2.9110 C   0  0  1  0  0  0  0  0  0  0  0  0
    3.4176   -3.5211    3.9178 C   0  0  0  0  0  0  0  0  0  0  0  0
    4.4906   -3.7845    1.6268 N   0  0  0  0  0  0  0  0  0  0  0  0
    4.1739   -5.2095    1.7170 C   0  0  0  0  0  0  0  0  0  0  0  0
    4.0048   -3.0887    0.4450 C   0  0  2  0  0  0  0  0  0  0  0  0
    2.6565   -2.7664    0.7275 O   0  0  0  0  0  0  0  0  0  0  0  0
    3.9907   -3.7684   -0.9414 C   0  0  0  0  0  0  0  0  0  0  0  0
    4.9584   -1.9109    0.3332 C   0  0  1  0  0  0  0  0  0  0  0  0
    3.4669   -4.0424   -3.7136 H   0  0  0  0  0  0  0  0  0  0  0  0
    2.6103   -2.5173   -3.9360 H   0  0  0  0  0  0  0  0  0  0  0  0
    1.9133   -3.7774   -2.9144 H   0  0  0  0  0  0  0  0  0  0  0  0
    3.4711   -0.7080   -2.5973 H   0  0  0  0  0  0  0  0  0  0  0  0
    5.5489   -0.3393   -1.0636 H   0  0  0  0  0  0  0  0  0  0  0  0
    4.2293    0.9854    0.4830 H   0  0  0  0  0  0  0  0  0  0  0  0
    2.9178   -0.2357    0.5885 H   0  0  0  0  0  0  0  0  0  0  0  0
    5.8590   -0.4283    1.5322 H   0  0  0  0  0  0  0  0  0  0  0  0
    3.2925   -1.1815    2.8496 H   0  0  0  0  0  0  0  0  0  0  0  0
    5.4569   -3.2165    3.3514 H   0  0  0  0  0  0  0  0  0  0  0  0
    3.4805   -2.9611    4.8516 H   0  0  0  0  0  0  0  0  0  0  0  0
    3.5571   -4.5689    4.1843 H   0  0  0  0  0  0  0  0  0  0  0  0
    2.4027   -3.4017    3.5343 H   0  0  0  0  0  0  0  0  0  0  0  0
    4.4849   -5.7266    0.8095 H   0  0  0  0  0  0  0  0  0  0  0  0
    3.1062   -5.3758    1.8592 H   0  0  0  0  0  0  0  0  0  0  0  0
    4.7173   -5.6657    2.5446 H   0  0  0  0  0  0  0  0  0  0  0  0
    2.3758   -2.0668    0.1534 H   0  0  0  0  0  0  0  0  0  0  0  0
    3.2956   -4.6103   -0.9271 H   0  0  0  0  0  0  0  0  0  0  0  0
    4.9665   -4.1593   -1.2001 H   0  0  0  0  0  0  0  0  0  0  0  0
    5.9871   -2.2257    0.1926 H   0  0  0  0  0  0  0  0  0  0  0  0
  1  2  1  0
  1 17  1  0
  1 18  1  0
  1 19  1  0
  2 15  1  0
  2  3  2  0
  3  4  1  0
  3 20  1  0
  4 16  1  0
  4  5  1  0
  4 21  1  6
  5  6  1  0
  5 22  1  0
  5 23  1  0
  6 16  1  0
  6  7  1  0
  6 24  1  1
  7  8  1  0
  7  9  1  0
  7 25  1  1
  9 10  1  0
  9 11  1  0
  9 26  1  1
 10 27  1  0
 10 28  1  0
 10 29  1  0
 11 12  1  0
 11 13  1  0
 12 30  1  0
 12 31  1  0
 12 32  1  0
 13 14  1  1
 13 15  1  0
 13 16  1  0
 14 33  1  0
 15 34  1  0
 15 35  1  0
 16 36  1  6
M  END
>  <i_m_ct_stereo_status>  (178) 
1

>  <s_m_source_file>  (178) 
/var/tmp/pbs.5076255.sched01/tmpbrsd6n1o/39u_ie0p0h.sdf

>  <i_m_source_file_index>  (178) 
31

>  <i_lp_mmshare_version>  (178) 
48012

>  <i_f3d_flags>  (178) 
0

>  <s_epik_input>  (178) 
W0NIM11DKFtDSDJdMSk9W0NIXVtDQEhdKFtDQEBIXTJbQ0BAXTEzW09IXSlbQ0gyXVtDQEhdMltDQEhdKEJyKVtDQEBIXShbQ0gzXSlOM1tDSDNd

>  <s_epik_cmdline>  (178) 
J2VwaWtfcHl0aG9uJywgJy1waHQnLCAnMi4wJywgJy1waCcsICc3LjAnLCAnLXRuJywgJzgnLCAnLW1hJywgJzIwMCcsICctaW1hZScsICc8aW5maWxlLm1hZT4nLCAnLW9tYWUnLCAnPG91dGZpbGUubWFlPic=

>  <r_epik_Ionization_Penalty>  (178) 
0.0581295

>  <r_epik_Ionization_Penalty_Charging>  (178) 
0

>  <r_epik_Ionization_Penalty_Neutral>  (178) 
0.0581295

>  <r_epik_State_Penalty>  (178) 
0.0502374

>  <r_epik_Charging_Adjusted_Penalty>  (178) 
0.0502374

>  <i_epik_Tot_Q>  (178) 
0

>  <i_epik_Tot_abs_Q>  (178) 
0

>  <s_lp_Force_Field>  (178) 
OPLS3e

>  <r_lp_Energy>  (178) 
31.9527

>  <b_lp_Chiralities_Consistent>  (178) 
1

>  <s_lp_Variant>  (178) 
55:0-1

>  <s_i_glide_gridfile>  (178) 
pfpi4k_grid

>  <i_i_glide_lignum>  (178) 
31

>  <i_i_glide_rotatable_bonds>  (178) 
1

>  <r_i_docking_score>  (178) 
-3.09597

>  <r_i_glide_ligand_efficiency>  (178) 
-0.193498

>  <r_i_glide_ligand_efficiency_sa>  (178) 
-0.487585

>  <r_i_glide_ligand_efficiency_ln>  (178) 
-0.820649

>  <r_i_glide_gscore>  (178) 
-3.09597

>  <r_i_glide_lipo>  (178) 
-0.461839

>  <r_i_glide_hbond>  (178) 
-0.0940174

>  <r_i_glide_metal>  (178) 
-0

>  <r_i_glide_rewards>  (178) 
-1.45767

>  <r_i_glide_evdw>  (178) 
-15.8241

>  <r_i_glide_ecoul>  (178) 
-1.93941

>  <r_i_glide_erotb>  (178) 
0

>  <r_i_glide_esite>  (178) 
-0.000326639

>  <r_i_glide_emodel>  (178) 
-21.5697

>  <r_i_glide_energy>  (178) 
-17.7635

>  <r_i_glide_einternal>  (178) 
0.0925658

>  <r_i_glide_intrahb_reward>  (178) 
-0

>  <i_i_glide_confnum>  (178) 
1

>  <i_i_glide_posenum>  (178) 
5

>  <r_i_glide_eff_state_penalty>  (178) 
0

>  <ligand_id>  (178) 
55

>  <original_smiles>  (178) 
CC1=CC2CC3C(Br)C(C)N(C)C(O)(C1)C23

>  <smiles>  (178) 
[H]OC12N(C([H])([H])[H])C([H])(C([H])([H])[H])C([H])(Br)C3([H])C([H])([H])C([H])(C([H])=C(C([H])([H])[H])C1([H])[H])C23[H]

$$$$
55:0:1
     RDKit          3D

 36 38  0  0  1  0  0  0  0  0999 V2000
    3.8119   -2.1648   -3.9955 C   0  0  0  0  0  0  0  0  0  0  0  0
    4.1826   -2.0916   -2.5273 C   0  0  0  0  0  0  0  0  0  0  0  0
    4.2718   -0.9194   -1.8529 C   0  0  0  0  0  0  0  0  0  0  0  0
    4.7777   -0.8273   -0.4097 C   0  0  1  0  0  0  0  0  0  0  0  0
    3.8124   -0.5008    0.7547 C   0  0  0  0  0  0  0  0  0  0  0  0
    4.4819   -1.6528    1.5560 C   0  0  1  0  0  0  0  0  0  0  0  0
    3.7073   -2.6564    2.4073 C   0  0  2  0  0  0  0  0  0  0  0  0
    4.1773   -2.4134    4.3262 Br  0  0  0  0  0  0  0  0  0  0  0  0
    3.9211   -4.1697    2.0143 C   0  0  1  0  0  0  0  0  0  0  0  0
    2.6900   -4.9986    2.4729 C   0  0  0  0  0  0  0  0  0  0  0  0
    4.2928   -4.4166    0.5874 N   0  0  0  0  0  0  0  0  0  0  0  0
    4.0759   -5.7662    0.0784 C   0  0  0  0  0  0  0  0  0  0  0  0
    4.0523   -3.3195   -0.3464 C   0  0  2  0  0  0  0  0  0  0  0  0
    2.6475   -3.1069   -0.2934 O   0  0  0  0  0  0  0  0  0  0  0  0
    4.4168   -3.4390   -1.8400 C   0  0  0  0  0  0  0  0  0  0  0  0
    4.8983   -2.2023    0.2153 C   0  0  1  0  0  0  0  0  0  0  0  0
    4.5812   -2.7068   -4.5353 H   0  0  0  0  0  0  0  0  0  0  0  0
    3.7058   -1.1677   -4.4291 H   0  0  0  0  0  0  0  0  0  0  0  0
    2.8679   -2.6928   -4.1320 H   0  0  0  0  0  0  0  0  0  0  0  0
    4.0805    0.0163   -2.3609 H   0  0  0  0  0  0  0  0  0  0  0  0
    5.7122   -0.2621   -0.3265 H   0  0  0  0  0  0  0  0  0  0  0  0
    3.9682    0.4824    1.2095 H   0  0  0  0  0  0  0  0  0  0  0  0
    2.7536   -0.6741    0.5517 H   0  0  0  0  0  0  0  0  0  0  0  0
    5.3847   -1.2849    2.0536 H   0  0  0  0  0  0  0  0  0  0  0  0
    2.6425   -2.4231    2.3359 H   0  0  0  0  0  0  0  0  0  0  0  0
    4.7729   -4.5398    2.5809 H   0  0  0  0  0  0  0  0  0  0  0  0
    2.4876   -4.8235    3.5319 H   0  0  0  0  0  0  0  0  0  0  0  0
    2.8387   -6.0728    2.3703 H   0  0  0  0  0  0  0  0  0  0  0  0
    1.7891   -4.7270    1.9225 H   0  0  0  0  0  0  0  0  0  0  0  0
    4.6253   -5.9185   -0.8481 H   0  0  0  0  0  0  0  0  0  0  0  0
    3.0182   -5.9498   -0.1220 H   0  0  0  0  0  0  0  0  0  0  0  0
    4.4346   -6.5078    0.7895 H   0  0  0  0  0  0  0  0  0  0  0  0
    2.4450   -2.2271   -0.5866 H   0  0  0  0  0  0  0  0  0  0  0  0
    3.8119   -4.1905   -2.3259 H   0  0  0  0  0  0  0  0  0  0  0  0
    5.4558   -3.7276   -1.9694 H   0  0  0  0  0  0  0  0  0  0  0  0
    5.9587   -2.4629    0.2313 H   0  0  0  0  0  0  0  0  0  0  0  0
  1  2  1  0
  1 17  1  0
  1 18  1  0
  1 19  1  0
  2 15  1  0
  2  3  2  0
  3  4  1  0
  3 20  1  0
  4 16  1  0
  4  5  1  0
  4 21  1  6
  5  6  1  0
  5 22  1  0
  5 23  1  0
  6 16  1  0
  6  7  1  0
  6 24  1  1
  7  8  1  0
  7  9  1  0
  7 25  1  1
  9 10  1  0
  9 11  1  0
  9 26  1  1
 10 27  1  0
 10 28  1  0
 10 29  1  0
 11 12  1  0
 11 13  1  0
 12 30  1  0
 12 31  1  0
 12 32  1  0
 13 14  1  6
 13 15  1  0
 13 16  1  0
 14 33  1  0
 15 34  1  0
 15 35  1  0
 16 36  1  1
M  END
>  <i_m_ct_stereo_status>  (179) 
1

>  <s_m_source_file>  (179) 
/var/tmp/pbs.5076255.sched01/tmpbrsd6n1o/39u_ie0p0h.sdf

>  <i_m_source_file_index>  (179) 
31

>  <i_lp_mmshare_version>  (179) 
48012

>  <i_f3d_flags>  (179) 
0

>  <s_epik_input>  (179) 
W0NIM11DKFtDSDJdMSk9W0NIXVtDQEhdKFtDQEBIXTJbQ0BAXTEzW09IXSlbQ0gyXVtDQEhdMltDQEhdKEJyKVtDQEBIXShbQ0gzXSlOM1tDSDNd

>  <s_epik_cmdline>  (179) 
J2VwaWtfcHl0aG9uJywgJy1waHQnLCAnMi4wJywgJy1waCcsICc3LjAnLCAnLXRuJywgJzgnLCAnLW1hJywgJzIwMCcsICctaW1hZScsICc8aW5maWxlLm1hZT4nLCAnLW9tYWUnLCAnPG91dGZpbGUubWFlPic=

>  <r_epik_Ionization_Penalty>  (179) 
0.0581295

>  <r_epik_Ionization_Penalty_Charging>  (179) 
0

>  <r_epik_Ionization_Penalty_Neutral>  (179) 
0.0581295

>  <r_epik_State_Penalty>  (179) 
0.0502374

>  <r_epik_Charging_Adjusted_Penalty>  (179) 
0.0502374

>  <i_epik_Tot_Q>  (179) 
0

>  <i_epik_Tot_abs_Q>  (179) 
0

>  <s_lp_Force_Field>  (179) 
OPLS3e

>  <r_lp_Energy>  (179) 
31.9527

>  <b_lp_Chiralities_Consistent>  (179) 
1

>  <s_lp_Variant>  (179) 
55:0-1

>  <s_i_glide_gridfile>  (179) 
pfpi4k_grid

>  <i_i_glide_lignum>  (179) 
31

>  <i_i_glide_rotatable_bonds>  (179) 
1

>  <r_i_docking_score>  (179) 
-2.88825

>  <r_i_glide_ligand_efficiency>  (179) 
-0.180516

>  <r_i_glide_ligand_efficiency_sa>  (179) 
-0.454871

>  <r_i_glide_ligand_efficiency_ln>  (179) 
-0.765589

>  <r_i_glide_gscore>  (179) 
-2.88825

>  <r_i_glide_lipo>  (179) 
-0.08642

>  <r_i_glide_hbond>  (179) 
-0.0928035

>  <r_i_glide_metal>  (179) 
-0

>  <r_i_glide_rewards>  (179) 
-1.51023

>  <r_i_glide_evdw>  (179) 
-16.7166

>  <r_i_glide_ecoul>  (179) 
-2.41978

>  <r_i_glide_erotb>  (179) 
0

>  <r_i_glide_esite>  (179) 
0

>  <r_i_glide_emodel>  (179) 
-22.6848

>  <r_i_glide_energy>  (179) 
-19.1364

>  <r_i_glide_einternal>  (179) 
0.0521787

>  <r_i_glide_intrahb_reward>  (179) 
-0

>  <i_i_glide_confnum>  (179) 
2

>  <i_i_glide_posenum>  (179) 
18

>  <r_i_glide_eff_state_penalty>  (179) 
0

>  <ligand_id>  (179) 
55

>  <original_smiles>  (179) 
CC1=CC2CC3C(Br)C(C)N(C)C(O)(C1)C23

>  <smiles>  (179) 
[H]OC12N(C([H])([H])[H])C([H])(C([H])([H])[H])C([H])(Br)C3([H])C([H])([H])C([H])(C([H])=C(C([H])([H])[H])C1([H])[H])C23[H]

$$$$
55:0:2
     RDKit          3D

 36 38  0  0  1  0  0  0  0  0999 V2000
    3.6024   -3.3225    4.7338 C   0  0  0  0  0  0  0  0  0  0  0  0
    4.0169   -3.6333    3.3083 C   0  0  0  0  0  0  0  0  0  0  0  0
    3.7206   -4.8086    2.7033 C   0  0  0  0  0  0  0  0  0  0  0  0
    4.2593   -5.1900    1.3216 C   0  0  1  0  0  0  0  0  0  0  0  0
    3.3244   -5.2359    0.0966 C   0  0  0  0  0  0  0  0  0  0  0  0
    4.4158   -4.4741   -0.7062 C   0  0  1  0  0  0  0  0  0  0  0  0
    4.1129   -3.3189   -1.6805 C   0  0  2  0  0  0  0  0  0  0  0  0
    4.6146   -3.7997   -3.5521 Br  0  0  0  0  0  0  0  0  0  0  0  0
    4.8261   -1.9643   -1.3354 C   0  0  1  0  0  0  0  0  0  0  0  0
    4.0152   -0.8091   -1.9548 C   0  0  0  0  0  0  0  0  0  0  0  0
    5.1471   -1.7436    0.1062 N   0  0  0  0  0  0  0  0  0  0  0  0
    5.4123   -0.3757    0.5355 C   0  0  0  0  0  0  0  0  0  0  0  0
    4.4777   -2.6125    1.0708 C   0  0  2  0  0  0  0  0  0  0  0  0
    3.0983   -2.3069    0.9213 O   0  0  0  0  0  0  0  0  0  0  0  0
    4.7637   -2.5066    2.5792 C   0  0  0  0  0  0  0  0  0  0  0  0
    4.9083   -4.0030    0.6399 C   0  0  1  0  0  0  0  0  0  0  0  0
    4.4751   -3.0643    5.3340 H   0  0  0  0  0  0  0  0  0  0  0  0
    3.1167   -4.1816    5.1958 H   0  0  0  0  0  0  0  0  0  0  0  0
    2.9074   -2.4813    4.7617 H   0  0  0  0  0  0  0  0  0  0  0  0
    3.1738   -5.5757    3.2345 H   0  0  0  0  0  0  0  0  0  0  0  0
    4.9162   -6.0658    1.3561 H   0  0  0  0  0  0  0  0  0  0  0  0
    3.1497   -6.2405   -0.2942 H   0  0  0  0  0  0  0  0  0  0  0  0
    2.3928   -4.6736    0.1984 H   0  0  0  0  0  0  0  0  0  0  0  0
    5.1479   -5.1779   -1.0961 H   0  0  0  0  0  0  0  0  0  0  0  0
    3.0321   -3.1712   -1.7002 H   0  0  0  0  0  0  0  0  0  0  0  0
    5.7955   -1.9738   -1.8362 H   0  0  0  0  0  0  0  0  0  0  0  0
    3.8235   -0.9842   -3.0122 H   0  0  0  0  0  0  0  0  0  0  0  0
    4.5534    0.1373   -1.9036 H   0  0  0  0  0  0  0  0  0  0  0  0
    3.0450   -0.6890   -1.4732 H   0  0  0  0  0  0  0  0  0  0  0  0
    5.9202   -0.3629    1.4992 H   0  0  0  0  0  0  0  0  0  0  0  0
    4.4906    0.2032    0.6231 H   0  0  0  0  0  0  0  0  0  0  0  0
    6.0795    0.1275   -0.1649 H   0  0  0  0  0  0  0  0  0  0  0  0
    2.9589   -1.7886    0.1502 H   0  0  0  0  0  0  0  0  0  0  0  0
    4.4511   -1.5319    2.9601 H   0  0  0  0  0  0  0  0  0  0  0  0
    5.8262   -2.6085    2.7848 H   0  0  0  0  0  0  0  0  0  0  0  0
    5.9852   -4.1351    0.7064 H   0  0  0  0  0  0  0  0  0  0  0  0
  1  2  1  0
  1 17  1  0
  1 18  1  0
  1 19  1  0
  2 15  1  0
  2  3  2  0
  3  4  1  0
  3 20  1  0
  4 16  1  0
  4  5  1  0
  4 21  1  1
  5  6  1  0
  5 22  1  0
  5 23  1  0
  6 16  1  0
  6  7  1  0
  6 24  1  6
  7  8  1  0
  7  9  1  0
  7 25  1  6
  9 10  1  0
  9 11  1  0
  9 26  1  6
 10 27  1  0
 10 28  1  0
 10 29  1  0
 11 12  1  0
 11 13  1  0
 12 30  1  0
 12 31  1  0
 12 32  1  0
 13 14  1  1
 13 15  1  0
 13 16  1  0
 14 33  1  0
 15 34  1  0
 15 35  1  0
 16 36  1  6
M  END
>  <i_m_ct_stereo_status>  (180) 
1

>  <s_m_source_file>  (180) 
/var/tmp/pbs.5076255.sched01/tmpbrsd6n1o/39u_ie0p0h.sdf

>  <i_m_source_file_index>  (180) 
31

>  <i_lp_mmshare_version>  (180) 
48012

>  <i_f3d_flags>  (180) 
0

>  <s_epik_input>  (180) 
W0NIM11DKFtDSDJdMSk9W0NIXVtDQEhdKFtDQEBIXTJbQ0BAXTEzW09IXSlbQ0gyXVtDQEhdMltDQEhdKEJyKVtDQEBIXShbQ0gzXSlOM1tDSDNd

>  <s_epik_cmdline>  (180) 
J2VwaWtfcHl0aG9uJywgJy1waHQnLCAnMi4wJywgJy1waCcsICc3LjAnLCAnLXRuJywgJzgnLCAnLW1hJywgJzIwMCcsICctaW1hZScsICc8aW5maWxlLm1hZT4nLCAnLW9tYWUnLCAnPG91dGZpbGUubWFlPic=

>  <r_epik_Ionization_Penalty>  (180) 
0.0581295

>  <r_epik_Ionization_Penalty_Charging>  (180) 
0

>  <r_epik_Ionization_Penalty_Neutral>  (180) 
0.0581295

>  <r_epik_State_Penalty>  (180) 
0.0502374

>  <r_epik_Charging_Adjusted_Penalty>  (180) 
0.0502374

>  <i_epik_Tot_Q>  (180) 
0

>  <i_epik_Tot_abs_Q>  (180) 
0

>  <s_lp_Force_Field>  (180) 
OPLS3e

>  <r_lp_Energy>  (180) 
31.9527

>  <b_lp_Chiralities_Consistent>  (180) 
1

>  <s_lp_Variant>  (180) 
55:0-1

>  <s_i_glide_gridfile>  (180) 
pfpi4k_grid

>  <i_i_glide_lignum>  (180) 
31

>  <i_i_glide_rotatable_bonds>  (180) 
1

>  <r_i_docking_score>  (180) 
-2.75891

>  <r_i_glide_ligand_efficiency>  (180) 
-0.172432

>  <r_i_glide_ligand_efficiency_sa>  (180) 
-0.434501

>  <r_i_glide_ligand_efficiency_ln>  (180) 
-0.731304

>  <r_i_glide_gscore>  (180) 
-2.75891

>  <r_i_glide_lipo>  (180) 
-0.312746

>  <r_i_glide_hbond>  (180) 
0

>  <r_i_glide_metal>  (180) 
-0

>  <r_i_glide_rewards>  (180) 
-1.47188

>  <r_i_glide_evdw>  (180) 
-16.6636

>  <r_i_glide_ecoul>  (180) 
-0.940683

>  <r_i_glide_erotb>  (180) 
0

>  <r_i_glide_esite>  (180) 
0

>  <r_i_glide_emodel>  (180) 
-20.5452

>  <r_i_glide_energy>  (180) 
-17.6043

>  <r_i_glide_einternal>  (180) 
0.910642

>  <r_i_glide_intrahb_reward>  (180) 
-0

>  <i_i_glide_confnum>  (180) 
1

>  <i_i_glide_posenum>  (180) 
3

>  <r_i_glide_eff_state_penalty>  (180) 
0

>  <ligand_id>  (180) 
55

>  <original_smiles>  (180) 
CC1=CC2CC3C(Br)C(C)N(C)C(O)(C1)C23

>  <smiles>  (180) 
[H]OC12N(C([H])([H])[H])C([H])(C([H])([H])[H])C([H])(Br)C3([H])C([H])([H])C([H])(C([H])=C(C([H])([H])[H])C1([H])[H])C23[H]

$$$$
55:1:0
     RDKit          3D

 37 39  0  0  1  0  0  0  0  0999 V2000
    1.8109   -5.5448    4.0223 C   0  0  0  0  0  0  0  0  0  0  0  0
    2.8195   -5.0009    3.0273 C   0  0  0  0  0  0  0  0  0  0  0  0
    3.9390   -5.6905    2.6843 C   0  0  0  0  0  0  0  0  0  0  0  0
    5.0595   -5.1087    1.8268 C   0  0  1  0  0  0  0  0  0  0  0  0
    5.2680   -5.5655    0.3666 C   0  0  0  0  0  0  0  0  0  0  0  0
    5.4030   -4.0676   -0.0235 C   0  0  1  0  0  0  0  0  0  0  0  0
    4.7394   -3.4440   -1.2573 C   0  0  2  0  0  0  0  0  0  0  0  0
    6.1798   -3.0544   -2.5622 Br  0  0  0  0  0  0  0  0  0  0  0  0
    3.9470   -2.1206   -0.9196 C   0  0  1  0  0  0  0  0  0  0  0  0
    3.1472   -1.6238   -2.1417 C   0  0  0  0  0  0  0  0  0  0  0  0
    3.0208   -2.2031    0.2813 N   0  0  2  0  0  0  0  0  0  0  0  0
    3.0836   -0.9795    1.1059 C   0  0  0  0  0  0  0  0  0  0  0  0
    3.1753   -3.4618    1.0660 C   0  0  2  0  0  0  0  0  0  0  0  0
    2.4395   -4.3266    0.2075 O   0  0  0  0  0  0  0  0  0  0  0  0
    2.4991   -3.6136    2.4442 C   0  0  0  0  0  0  0  0  0  0  0  0
    4.6577   -3.7634    1.2484 C   0  0  1  0  0  0  0  0  0  0  0  0
    1.6782   -4.8528    4.8558 H   0  0  0  0  0  0  0  0  0  0  0  0
    2.1389   -6.5013    4.4380 H   0  0  0  0  0  0  0  0  0  0  0  0
    0.8407   -5.7008    3.5491 H   0  0  0  0  0  0  0  0  0  0  0  0
    4.1301   -6.6655    3.1223 H   0  0  0  0  0  0  0  0  0  0  0  0
    6.0073   -5.0521    2.3715 H   0  0  0  0  0  0  0  0  0  0  0  0
    6.1934   -6.1264    0.2071 H   0  0  0  0  0  0  0  0  0  0  0  0
    4.4091   -6.0638   -0.0924 H   0  0  0  0  0  0  0  0  0  0  0  0
    6.4373   -3.7345    0.1247 H   0  0  0  0  0  0  0  0  0  0  0  0
    4.1012   -4.1657   -1.7660 H   0  0  0  0  0  0  0  0  0  0  0  0
    4.7024   -1.3698   -0.6953 H   0  0  0  0  0  0  0  0  0  0  0  0
    3.7910   -1.4618   -3.0097 H   0  0  0  0  0  0  0  0  0  0  0  0
    2.6603   -0.6725   -1.9333 H   0  0  0  0  0  0  0  0  0  0  0  0
    2.3673   -2.3337   -2.4284 H   0  0  0  0  0  0  0  0  0  0  0  0
    4.0437   -0.8998    1.6201 H   0  0  0  0  0  0  0  0  0  0  0  0
    2.2830   -0.9716    1.8502 H   0  0  0  0  0  0  0  0  0  0  0  0
    2.9543   -0.0976    0.4764 H   0  0  0  0  0  0  0  0  0  0  0  0
    3.0467   -4.7834   -0.3650 H   0  0  0  0  0  0  0  0  0  0  0  0
    1.4193   -3.4727    2.3721 H   0  0  0  0  0  0  0  0  0  0  0  0
    2.8722   -2.8753    3.1514 H   0  0  0  0  0  0  0  0  0  0  0  0
    5.1717   -2.9888    1.8177 H   0  0  0  0  0  0  0  0  0  0  0  0
    2.0868   -2.1924   -0.1072 H   0  0  0  0  0  0  0  0  0  0  0  0
  1  2  1  0
  1 17  1  0
  1 18  1  0
  1 19  1  0
  2 15  1  0
  2  3  2  0
  3  4  1  0
  3 20  1  0
  4 16  1  0
  4  5  1  0
  4 21  1  1
  5  6  1  0
  5 22  1  0
  5 23  1  0
  6 16  1  0
  6  7  1  0
  6 24  1  1
  7  8  1  0
  7  9  1  0
  7 25  1  6
  9 10  1  0
  9 11  1  0
  9 26  1  1
 10 27  1  0
 10 28  1  0
 10 29  1  0
 11 12  1  0
 11 13  1  0
 11 37  1  6
 12 30  1  0
 12 31  1  0
 12 32  1  0
 13 14  1  6
 13 15  1  0
 13 16  1  0
 14 33  1  0
 15 34  1  0
 15 35  1  0
 16 36  1  1
M  CHG  1  11   1
M  END
>  <i_m_ct_stereo_status>  (181) 
1

>  <s_m_source_file>  (181) 
/var/tmp/pbs.5076255.sched01/tmpbrsd6n1o/39u_ie0p0h.sdf

>  <i_m_source_file_index>  (181) 
32

>  <i_lp_mmshare_version>  (181) 
48012

>  <i_f3d_flags>  (181) 
0

>  <s_epik_input>  (181) 
W0NIM11DKFtDSDJdMSk9W0NIXVtDQEhdKFtDQEBIXTJbQ0BAXTEzW09IXSlbQ0gyXVtDQEhdMltDQEhdKEJyKVtDQEBIXShbQ0gzXSlOM1tDSDNd

>  <s_epik_cmdline>  (181) 
J2VwaWtfcHl0aG9uJywgJy1waHQnLCAnMi4wJywgJy1waCcsICc3LjAnLCAnLXRuJywgJzgnLCAnLW1hJywgJzIwMCcsICctaW1hZScsICc8aW5maWxlLm1hZT4nLCAnLW9tYWUnLCAnPG91dGZpbGUubWFlPic=

>  <r_epik_Ionization_Penalty>  (181) 
1.40686

>  <r_epik_Ionization_Penalty_Charging>  (181) 
1.4045

>  <r_epik_Ionization_Penalty_Neutral>  (181) 
0.00235381

>  <r_epik_State_Penalty>  (181) 
1.48694

>  <r_epik_Charging_Adjusted_Penalty>  (181) 
2.89144

>  <i_epik_Tot_Q>  (181) 
1

>  <i_epik_Tot_abs_Q>  (181) 
1

>  <s_lp_Force_Field>  (181) 
OPLS3e

>  <r_lp_Energy>  (181) 
35.547

>  <b_lp_Chiralities_Consistent>  (181) 
1

>  <s_lp_Variant>  (181) 
55:0-2

>  <s_i_glide_gridfile>  (181) 
pfpi4k_grid

>  <i_i_glide_lignum>  (181) 
32

>  <i_i_glide_rotatable_bonds>  (181) 
1

>  <r_i_docking_score>  (181) 
-3.76949

>  <r_i_glide_ligand_efficiency>  (181) 
-0.235593

>  <r_i_glide_ligand_efficiency_sa>  (181) 
-0.593658

>  <r_i_glide_ligand_efficiency_ln>  (181) 
-0.999179

>  <r_i_glide_gscore>  (181) 
-3.76949

>  <r_i_glide_lipo>  (181) 
-0.431267

>  <r_i_glide_hbond>  (181) 
-0.172517

>  <r_i_glide_metal>  (181) 
-0

>  <r_i_glide_rewards>  (181) 
-1.4508

>  <r_i_glide_evdw>  (181) 
-13.2883

>  <r_i_glide_ecoul>  (181) 
-6.55662

>  <r_i_glide_erotb>  (181) 
0

>  <r_i_glide_esite>  (181) 
-0.0670003

>  <r_i_glide_emodel>  (181) 
-25.1041

>  <r_i_glide_energy>  (181) 
-19.8449

>  <r_i_glide_einternal>  (181) 
0.775652

>  <r_i_glide_intrahb_reward>  (181) 
-0

>  <i_i_glide_confnum>  (181) 
2

>  <i_i_glide_posenum>  (181) 
35

>  <r_i_glide_eff_state_penalty>  (181) 
0

>  <ligand_id>  (181) 
55

>  <original_smiles>  (181) 
CC1=CC2CC3C(Br)C(C)N(C)C(O)(C1)C23

>  <smiles>  (181) 
[H]OC12C([H])([H])C(C([H])([H])[H])=C([H])C3([H])C([H])([H])C([H])(C([H])(Br)C([H])(C([H])([H])[H])[N+]1([H])C([H])([H])[H])C32[H]

$$$$
55:1:1
     RDKit          3D

 37 39  0  0  1  0  0  0  0  0999 V2000
    2.4610   -3.9497    4.2551 C   0  0  0  0  0  0  0  0  0  0  0  0
    3.2150   -3.9454    2.9281 C   0  0  0  0  0  0  0  0  0  0  0  0
    3.7291   -5.0778    2.4008 C   0  0  0  0  0  0  0  0  0  0  0  0
    4.6520   -5.0778    1.1728 C   0  0  1  0  0  0  0  0  0  0  0  0
    4.1352   -5.6045   -0.1760 C   0  0  0  0  0  0  0  0  0  0  0  0
    4.7571   -4.3481   -0.8425 C   0  0  1  0  0  0  0  0  0  0  0  0
    4.0613   -3.5010   -1.9205 C   0  0  2  0  0  0  0  0  0  0  0  0
    4.9529   -3.8237   -3.6684 Br  0  0  0  0  0  0  0  0  0  0  0  0
    4.0842   -1.9689   -1.5750 C   0  0  1  0  0  0  0  0  0  0  0  0
    3.2636   -1.1930   -2.6065 C   0  0  0  0  0  0  0  0  0  0  0  0
    3.6597   -1.6141   -0.1740 N   0  0  2  0  0  0  0  0  0  0  0  0
    4.5090   -0.5551    0.4018 C   0  0  0  0  0  0  0  0  0  0  0  0
    3.5253   -2.7724    0.7365 C   0  0  2  0  0  0  0  0  0  0  0  0
    2.2699   -3.2583    0.2698 O   0  0  0  0  0  0  0  0  0  0  0  0
    3.3420   -2.5753    2.2473 C   0  0  0  0  0  0  0  0  0  0  0  0
    4.6964   -3.7153    0.5170 C   0  0  1  0  0  0  0  0  0  0  0  0
    2.9286   -3.2635    4.9640 H   0  0  0  0  0  0  0  0  0  0  0  0
    2.4615   -4.9422    4.7026 H   0  0  0  0  0  0  0  0  0  0  0  0
    1.4239   -3.6422    4.1119 H   0  0  0  0  0  0  0  0  0  0  0  0
    3.6201   -6.0294    2.9024 H   0  0  0  0  0  0  0  0  0  0  0  0
    5.6528   -5.4620    1.3929 H   0  0  0  0  0  0  0  0  0  0  0  0
    4.6119   -6.5253   -0.5231 H   0  0  0  0  0  0  0  0  0  0  0  0
    3.0500   -5.6477   -0.2895 H   0  0  0  0  0  0  0  0  0  0  0  0
    5.8084   -4.5264   -1.0513 H   0  0  0  0  0  0  0  0  0  0  0  0
    3.0426   -3.8553   -2.0688 H   0  0  0  0  0  0  0  0  0  0  0  0
    5.1184   -1.6560   -1.7097 H   0  0  0  0  0  0  0  0  0  0  0  0
    3.5698   -1.3617   -3.6408 H   0  0  0  0  0  0  0  0  0  0  0  0
    3.3632   -0.1258   -2.4544 H   0  0  0  0  0  0  0  0  0  0  0  0
    2.2185   -1.4626   -2.5296 H   0  0  0  0  0  0  0  0  0  0  0  0
    5.5243   -0.8938    0.5827 H   0  0  0  0  0  0  0  0  0  0  0  0
    4.1127   -0.1469    1.3212 H   0  0  0  0  0  0  0  0  0  0  0  0
    4.5766    0.2488   -0.3088 H   0  0  0  0  0  0  0  0  0  0  0  0
    1.8518   -2.6594   -0.3196 H   0  0  0  0  0  0  0  0  0  0  0  0
    2.4661   -1.9566    2.4573 H   0  0  0  0  0  0  0  0  0  0  0  0
    4.2023   -2.0777    2.6944 H   0  0  0  0  0  0  0  0  0  0  0  0
    5.6535   -3.2689    0.7691 H   0  0  0  0  0  0  0  0  0  0  0  0
    2.7447   -1.1764   -0.2607 H   0  0  0  0  0  0  0  0  0  0  0  0
  1  2  1  0
  1 17  1  0
  1 18  1  0
  1 19  1  0
  2 15  1  0
  2  3  2  0
  3  4  1  0
  3 20  1  0
  4 16  1  0
  4  5  1  0
  4 21  1  1
  5  6  1  0
  5 22  1  0
  5 23  1  0
  6 16  1  0
  6  7  1  0
  6 24  1  6
  7  8  1  0
  7  9  1  0
  7 25  1  6
  9 10  1  0
  9 11  1  0
  9 26  1  1
 10 27  1  0
 10 28  1  0
 10 29  1  0
 11 12  1  0
 11 13  1  0
 11 37  1  6
 12 30  1  0
 12 31  1  0
 12 32  1  0
 13 14  1  6
 13 15  1  0
 13 16  1  0
 14 33  1  0
 15 34  1  0
 15 35  1  0
 16 36  1  1
M  CHG  1  11   1
M  END
>  <i_m_ct_stereo_status>  (182) 
1

>  <s_m_source_file>  (182) 
/var/tmp/pbs.5076255.sched01/tmpbrsd6n1o/39u_ie0p0h.sdf

>  <i_m_source_file_index>  (182) 
32

>  <i_lp_mmshare_version>  (182) 
48012

>  <i_f3d_flags>  (182) 
0

>  <s_epik_input>  (182) 
W0NIM11DKFtDSDJdMSk9W0NIXVtDQEhdKFtDQEBIXTJbQ0BAXTEzW09IXSlbQ0gyXVtDQEhdMltDQEhdKEJyKVtDQEBIXShbQ0gzXSlOM1tDSDNd

>  <s_epik_cmdline>  (182) 
J2VwaWtfcHl0aG9uJywgJy1waHQnLCAnMi4wJywgJy1waCcsICc3LjAnLCAnLXRuJywgJzgnLCAnLW1hJywgJzIwMCcsICctaW1hZScsICc8aW5maWxlLm1hZT4nLCAnLW9tYWUnLCAnPG91dGZpbGUubWFlPic=

>  <r_epik_Ionization_Penalty>  (182) 
1.40686

>  <r_epik_Ionization_Penalty_Charging>  (182) 
1.4045

>  <r_epik_Ionization_Penalty_Neutral>  (182) 
0.00235381

>  <r_epik_State_Penalty>  (182) 
1.48694

>  <r_epik_Charging_Adjusted_Penalty>  (182) 
2.89144

>  <i_epik_Tot_Q>  (182) 
1

>  <i_epik_Tot_abs_Q>  (182) 
1

>  <s_lp_Force_Field>  (182) 
OPLS3e

>  <r_lp_Energy>  (182) 
35.547

>  <b_lp_Chiralities_Consistent>  (182) 
1

>  <s_lp_Variant>  (182) 
55:0-2

>  <s_i_glide_gridfile>  (182) 
pfpi4k_grid

>  <i_i_glide_lignum>  (182) 
32

>  <i_i_glide_rotatable_bonds>  (182) 
1

>  <r_i_docking_score>  (182) 
-3.62596

>  <r_i_glide_ligand_efficiency>  (182) 
-0.226622

>  <r_i_glide_ligand_efficiency_sa>  (182) 
-0.571053

>  <r_i_glide_ligand_efficiency_ln>  (182) 
-0.961133

>  <r_i_glide_gscore>  (182) 
-3.62596

>  <r_i_glide_lipo>  (182) 
-0.26558

>  <r_i_glide_hbond>  (182) 
-0.325291

>  <r_i_glide_metal>  (182) 
-0

>  <r_i_glide_rewards>  (182) 
-1.4508

>  <r_i_glide_evdw>  (182) 
-11.8084

>  <r_i_glide_ecoul>  (182) 
-6.0581

>  <r_i_glide_erotb>  (182) 
0

>  <r_i_glide_esite>  (182) 
-0.0851504

>  <r_i_glide_emodel>  (182) 
-22.7696

>  <r_i_glide_energy>  (182) 
-17.8665

>  <r_i_glide_einternal>  (182) 
0.945226

>  <r_i_glide_intrahb_reward>  (182) 
-0

>  <i_i_glide_confnum>  (182) 
2

>  <i_i_glide_posenum>  (182) 
9

>  <r_i_glide_eff_state_penalty>  (182) 
0

>  <ligand_id>  (182) 
55

>  <original_smiles>  (182) 
CC1=CC2CC3C(Br)C(C)N(C)C(O)(C1)C23

>  <smiles>  (182) 
[H]OC12C([H])([H])C(C([H])([H])[H])=C([H])C3([H])C([H])([H])C([H])(C([H])(Br)C([H])(C([H])([H])[H])[N+]1([H])C([H])([H])[H])C32[H]

$$$$
55:1:2
     RDKit          3D

 37 39  0  0  1  0  0  0  0  0999 V2000
    3.1056   -2.3738   -3.8450 C   0  0  0  0  0  0  0  0  0  0  0  0
    3.7552   -2.2019   -2.4826 C   0  0  0  0  0  0  0  0  0  0  0  0
    4.1171   -0.9860   -2.0057 C   0  0  0  0  0  0  0  0  0  0  0  0
    4.8955   -0.7754   -0.7060 C   0  0  1  0  0  0  0  0  0  0  0  0
    4.2237   -0.2233    0.5715 C   0  0  0  0  0  0  0  0  0  0  0  0
    4.9388   -1.3471    1.3692 C   0  0  1  0  0  0  0  0  0  0  0  0
    4.2462   -2.1802    2.4606 C   0  0  2  0  0  0  0  0  0  0  0  0
    4.9828   -1.6295    4.2277 Br  0  0  0  0  0  0  0  0  0  0  0  0
    4.4435   -3.7298    2.2474 C   0  0  1  0  0  0  0  0  0  0  0  0
    3.5918   -4.5501    3.2402 C   0  0  0  0  0  0  0  0  0  0  0  0
    4.1937   -4.2349    0.8403 N   0  0  2  0  0  0  0  0  0  0  0  0
    5.1880   -5.2544    0.4344 C   0  0  0  0  0  0  0  0  0  0  0  0
    4.0043   -3.1567   -0.1723 C   0  0  2  0  0  0  0  0  0  0  0  0
    2.6563   -2.8170    0.1392 O   0  0  0  0  0  0  0  0  0  0  0  0
    3.9765   -3.4875   -1.6741 C   0  0  0  0  0  0  0  0  0  0  0  0
    5.0488   -2.0774    0.0529 C   0  0  1  0  0  0  0  0  0  0  0  0
    3.6902   -3.0597   -4.4586 H   0  0  0  0  0  0  0  0  0  0  0  0
    3.0338   -1.4203   -4.3724 H   0  0  0  0  0  0  0  0  0  0  0  0
    2.0963   -2.7792   -3.7487 H   0  0  0  0  0  0  0  0  0  0  0  0
    3.9358   -0.0978   -2.6010 H   0  0  0  0  0  0  0  0  0  0  0  0
    5.8543   -0.2930   -0.8858 H   0  0  0  0  0  0  0  0  0  0  0  0
    4.5681    0.7719    0.8584 H   0  0  0  0  0  0  0  0  0  0  0  0
    3.1330   -0.2905    0.5890 H   0  0  0  0  0  0  0  0  0  0  0  0
    5.9500   -1.0385    1.6506 H   0  0  0  0  0  0  0  0  0  0  0  0
    3.1818   -1.9402    2.4968 H   0  0  0  0  0  0  0  0  0  0  0  0
    5.4920   -3.9249    2.4810 H   0  0  0  0  0  0  0  0  0  0  0  0
    3.8091   -4.2797    4.2750 H   0  0  0  0  0  0  0  0  0  0  0  0
    3.7922   -5.6175    3.1458 H   0  0  0  0  0  0  0  0  0  0  0  0
    2.5251   -4.3960    3.0742 H   0  0  0  0  0  0  0  0  0  0  0  0
    6.1706   -4.7974    0.2892 H   0  0  0  0  0  0  0  0  0  0  0  0
    4.8934   -5.7527   -0.4916 H   0  0  0  0  0  0  0  0  0  0  0  0
    5.2865   -6.0218    1.2060 H   0  0  0  0  0  0  0  0  0  0  0  0
    2.3813   -2.0808   -0.4039 H   0  0  0  0  0  0  0  0  0  0  0  0
    3.1764   -4.1973   -1.8759 H   0  0  0  0  0  0  0  0  0  0  0  0
    4.9144   -3.9319   -2.0073 H   0  0  0  0  0  0  0  0  0  0  0  0
    6.0597   -2.4557   -0.0989 H   0  0  0  0  0  0  0  0  0  0  0  0
    3.2974   -4.6987    0.8687 H   0  0  0  0  0  0  0  0  0  0  0  0
  1  2  1  0
  1 17  1  0
  1 18  1  0
  1 19  1  0
  2 15  1  0
  2  3  2  0
  3  4  1  0
  3 20  1  0
  4 16  1  0
  4  5  1  0
  4 21  1  6
  5  6  1  0
  5 22  1  0
  5 23  1  0
  6 16  1  0
  6  7  1  0
  6 24  1  1
  7  8  1  0
  7  9  1  0
  7 25  1  1
  9 10  1  0
  9 11  1  0
  9 26  1  1
 10 27  1  0
 10 28  1  0
 10 29  1  0
 11 12  1  0
 11 13  1  0
 11 37  1  1
 12 30  1  0
 12 31  1  0
 12 32  1  0
 13 14  1  1
 13 15  1  0
 13 16  1  0
 14 33  1  0
 15 34  1  0
 15 35  1  0
 16 36  1  1
M  CHG  1  11   1
M  END
>  <i_m_ct_stereo_status>  (183) 
1

>  <s_m_source_file>  (183) 
/var/tmp/pbs.5076255.sched01/tmpbrsd6n1o/39u_ie0p0h.sdf

>  <i_m_source_file_index>  (183) 
32

>  <i_lp_mmshare_version>  (183) 
48012

>  <i_f3d_flags>  (183) 
0

>  <s_epik_input>  (183) 
W0NIM11DKFtDSDJdMSk9W0NIXVtDQEhdKFtDQEBIXTJbQ0BAXTEzW09IXSlbQ0gyXVtDQEhdMltDQEhdKEJyKVtDQEBIXShbQ0gzXSlOM1tDSDNd

>  <s_epik_cmdline>  (183) 
J2VwaWtfcHl0aG9uJywgJy1waHQnLCAnMi4wJywgJy1waCcsICc3LjAnLCAnLXRuJywgJzgnLCAnLW1hJywgJzIwMCcsICctaW1hZScsICc8aW5maWxlLm1hZT4nLCAnLW9tYWUnLCAnPG91dGZpbGUubWFlPic=

>  <r_epik_Ionization_Penalty>  (183) 
1.40686

>  <r_epik_Ionization_Penalty_Charging>  (183) 
1.4045

>  <r_epik_Ionization_Penalty_Neutral>  (183) 
0.00235381

>  <r_epik_State_Penalty>  (183) 
1.48694

>  <r_epik_Charging_Adjusted_Penalty>  (183) 
2.89144

>  <i_epik_Tot_Q>  (183) 
1

>  <i_epik_Tot_abs_Q>  (183) 
1

>  <s_lp_Force_Field>  (183) 
OPLS3e

>  <r_lp_Energy>  (183) 
35.547

>  <b_lp_Chiralities_Consistent>  (183) 
1

>  <s_lp_Variant>  (183) 
55:0-2

>  <s_i_glide_gridfile>  (183) 
pfpi4k_grid

>  <i_i_glide_lignum>  (183) 
32

>  <i_i_glide_rotatable_bonds>  (183) 
1

>  <r_i_docking_score>  (183) 
-3.52658

>  <r_i_glide_ligand_efficiency>  (183) 
-0.220411

>  <r_i_glide_ligand_efficiency_sa>  (183) 
-0.555402

>  <r_i_glide_ligand_efficiency_ln>  (183) 
-0.934791

>  <r_i_glide_gscore>  (183) 
-3.52658

>  <r_i_glide_lipo>  (183) 
-0.503051

>  <r_i_glide_hbond>  (183) 
-0.126165

>  <r_i_glide_metal>  (183) 
-0

>  <r_i_glide_rewards>  (183) 
-1.47083

>  <r_i_glide_evdw>  (183) 
-15.3792

>  <r_i_glide_ecoul>  (183) 
-4.3838

>  <r_i_glide_erotb>  (183) 
0

>  <r_i_glide_esite>  (183) 
0

>  <r_i_glide_emodel>  (183) 
-25.0349

>  <r_i_glide_energy>  (183) 
-19.763

>  <r_i_glide_einternal>  (183) 
0.214959

>  <r_i_glide_intrahb_reward>  (183) 
-0

>  <i_i_glide_confnum>  (183) 
1

>  <i_i_glide_posenum>  (183) 
6

>  <r_i_glide_eff_state_penalty>  (183) 
0

>  <ligand_id>  (183) 
55

>  <original_smiles>  (183) 
CC1=CC2CC3C(Br)C(C)N(C)C(O)(C1)C23

>  <smiles>  (183) 
[H]OC12C([H])([H])C(C([H])([H])[H])=C([H])C3([H])C([H])([H])C([H])(C([H])(Br)C([H])(C([H])([H])[H])[N+]1([H])C([H])([H])[H])C32[H]

$$$$
56:0:0
     RDKit          3D

 31 34  0  0  1  0  0  0  0  0999 V2000
   -3.0376    3.0512    6.1459 C   0  0  0  0  0  0  0  0  0  0  0  0
   -2.1655    2.7099    5.0061 C   0  0  0  0  0  0  0  0  0  0  0  0
   -2.4972    3.0052    3.7566 N   0  0  0  0  0  0  0  0  0  0  0  0
   -1.4245    2.4748    3.0260 O   0  0  0  0  0  0  0  0  0  0  0  0
   -0.5620    1.9572    3.9378 C   0  0  0  0  0  0  0  0  0  0  0  0
    0.6783    1.3341    3.4682 C   0  0  0  0  0  0  0  0  0  0  0  0
    0.8439    1.0155    2.1027 C   0  0  0  0  0  0  0  0  0  0  0  0
    2.0006    0.4342    1.6585 C   0  0  0  0  0  0  0  0  0  0  0  0
    3.0303    0.1368    2.5218 N   0  0  0  0  0  0  0  0  0  0  0  0
    4.3007   -0.4623    2.3753 C   0  0  0  0  0  0  0  0  0  0  0  0
    4.8914   -0.9905    1.1185 C   0  0  0  0  0  0  0  0  0  0  0  0
    4.2498   -1.0730   -0.1375 C   0  0  0  0  0  0  0  0  0  0  0  0
    5.0058   -1.5681   -1.2091 C   0  0  0  0  0  0  0  0  0  0  0  0
    6.2847   -1.9660   -1.0774 N   0  0  0  0  0  0  0  0  0  0  0  0
    6.7871   -1.9250    0.1579 C   0  0  0  0  0  0  0  0  0  0  0  0
    6.1666   -1.4461    1.2440 N   0  0  0  0  0  0  0  0  0  0  0  0
    4.8616   -0.4588    3.6334 C   0  0  0  0  0  0  0  0  0  0  0  0
    4.0063    0.0962    4.5738 N   0  0  0  0  0  0  0  0  0  0  0  0
    2.9085    0.4488    3.9067 C   0  0  0  0  0  0  0  0  0  0  0  0
    1.6974    1.0571    4.3601 C   0  0  0  0  0  0  0  0  0  0  0  0
   -0.9843    2.0738    5.1927 N   0  0  0  0  0  0  0  0  0  0  0  0
   -4.0204    3.3297    5.7748 H   0  0  0  0  0  0  0  0  0  0  0  0
   -2.6096    3.8887    6.6891 H   0  0  0  0  0  0  0  0  0  0  0  0
   -3.1330    2.1923    6.8077 H   0  0  0  0  0  0  0  0  0  0  0  0
    0.0619    1.2227    1.3705 H   0  0  0  0  0  0  0  0  0  0  0  0
    2.0627    0.2235    0.6059 H   0  0  0  0  0  0  0  0  0  0  0  0
    3.2392   -0.8284   -0.3695 H   0  0  0  0  0  0  0  0  0  0  0  0
    4.5497   -1.6387   -2.1876 H   0  0  0  0  0  0  0  0  0  0  0  0
    7.8034   -2.2733    0.2479 H   0  0  0  0  0  0  0  0  0  0  0  0
    5.8255   -0.8261    3.9563 H   0  0  0  0  0  0  0  0  0  0  0  0
    1.5757    1.3092    5.4056 H   0  0  0  0  0  0  0  0  0  0  0  0
  1  2  1  0
  1 22  1  0
  1 23  1  0
  1 24  1  0
  2 21  1  0
  2  3  2  0
  3  4  1  0
  4  5  1  0
  5  6  1  0
  5 21  2  0
  6 20  2  0
  6  7  1  0
  7  8  2  0
  7 25  1  0
  8  9  1  0
  8 26  1  0
  9 19  1  0
  9 10  1  0
 10 11  1  0
 10 17  2  0
 11 16  1  0
 11 12  2  0
 12 13  1  0
 12 27  1  0
 13 14  2  0
 13 28  1  0
 14 15  1  0
 15 16  2  0
 15 29  1  0
 17 18  1  0
 17 30  1  0
 18 19  2  0
 19 20  1  0
 20 31  1  0
M  END
>  <i_m_ct_stereo_status>  (184) 
1

>  <s_m_source_file>  (184) 
/var/tmp/pbs.5076255.sched01/tmpbrsd6n1o/39u_ie0p0h.sdf

>  <i_m_source_file_index>  (184) 
33

>  <i_lp_mmshare_version>  (184) 
48012

>  <i_f3d_flags>  (184) 
0

>  <s_epik_input>  (184) 
W0NIM11jMW5vYyhuMSktYyhbY0hdW2NIXTIpW2NIXWMobjIzKW5bY0hdYzMtYzRbY0hdW2NIXW5bY0hdbjQ=

>  <s_epik_cmdline>  (184) 
J2VwaWtfcHl0aG9uJywgJy1waHQnLCAnMi4wJywgJy1waCcsICc3LjAnLCAnLXRuJywgJzgnLCAnLW1hJywgJzIwMCcsICctaW1hZScsICc8aW5maWxlLm1hZT4nLCAnLW9tYWUnLCAnPG91dGZpbGUubWFlPic=

>  <r_lp_tautomer_probability>  (184) 
1

>  <r_epik_Ionization_Penalty>  (184) 
0.00270578

>  <r_epik_Ionization_Penalty_Charging>  (184) 
0.00270412

>  <r_epik_Ionization_Penalty_Neutral>  (184) 
1.66157e-06

>  <r_epik_State_Penalty>  (184) 
0.0018853

>  <r_epik_Charging_Adjusted_Penalty>  (184) 
0.00458942

>  <i_epik_Tot_Q>  (184) 
0

>  <i_epik_Tot_abs_Q>  (184) 
0

>  <s_lp_Force_Field>  (184) 
OPLS3e

>  <r_lp_Energy>  (184) 
25.309

>  <b_lp_Chiralities_Consistent>  (184) 
1

>  <s_lp_Variant>  (184) 
56:0-1

>  <s_i_glide_gridfile>  (184) 
pfpi4k_grid

>  <i_i_glide_lignum>  (184) 
33

>  <i_i_glide_rotatable_bonds>  (184) 
2

>  <r_i_docking_score>  (184) 
-3.41287

>  <r_i_glide_ligand_efficiency>  (184) 
-0.162518

>  <r_i_glide_ligand_efficiency_sa>  (184) 
-0.448374

>  <r_i_glide_ligand_efficiency_ln>  (184) 
-0.843826

>  <r_i_glide_gscore>  (184) 
-3.41287

>  <r_i_glide_lipo>  (184) 
-0.37332

>  <r_i_glide_hbond>  (184) 
-0.134977

>  <r_i_glide_metal>  (184) 
-0

>  <r_i_glide_rewards>  (184) 
-1.54458

>  <r_i_glide_evdw>  (184) 
-26.9736

>  <r_i_glide_ecoul>  (184) 
-2.42135

>  <r_i_glide_erotb>  (184) 
0.465512

>  <r_i_glide_esite>  (184) 
-0.113631

>  <r_i_glide_emodel>  (184) 
-35.2772

>  <r_i_glide_energy>  (184) 
-29.3949

>  <r_i_glide_einternal>  (184) 
1.10883

>  <r_i_glide_intrahb_reward>  (184) 
-0

>  <i_i_glide_confnum>  (184) 
6

>  <i_i_glide_posenum>  (184) 
8

>  <r_i_glide_eff_state_penalty>  (184) 
0

>  <ligand_id>  (184) 
56

>  <original_smiles>  (184) 
Cc1noc(-c2ccn3c(-c4ccncn4)cnc3c2)n1

>  <smiles>  (184) 
[H]c1nc([H])c([H])c(-c2c([H])nc3c([H])c(-c4nc(C([H])([H])[H])no4)c([H])c([H])n23)n1

$$$$
56:0:1
     RDKit          3D

 31 34  0  0  1  0  0  0  0  0999 V2000
   -2.3943    2.9982    6.2509 C   0  0  0  0  0  0  0  0  0  0  0  0
   -1.7837    1.6994    5.8550 C   0  0  0  0  0  0  0  0  0  0  0  0
   -2.0775    0.5609    6.4752 N   0  0  0  0  0  0  0  0  0  0  0  0
   -1.2886   -0.3806    5.7979 O   0  0  0  0  0  0  0  0  0  0  0  0
   -0.6027    0.3104    4.8494 C   0  0  0  0  0  0  0  0  0  0  0  0
    0.3280   -0.4202    3.9844 C   0  0  0  0  0  0  0  0  0  0  0  0
    0.9362    0.2421    2.8875 C   0  0  0  0  0  0  0  0  0  0  0  0
    1.8092   -0.4159    2.0520 C   0  0  0  0  0  0  0  0  0  0  0  0
    2.1050   -1.7371    2.2585 N   0  0  0  0  0  0  0  0  0  0  0  0
    2.9161   -2.6746    1.5959 C   0  0  0  0  0  0  0  0  0  0  0  0
    3.7290   -2.4632    0.3852 C   0  0  0  0  0  0  0  0  0  0  0  0
    4.3957   -3.5456   -0.2300 C   0  0  0  0  0  0  0  0  0  0  0  0
    5.1495   -3.2698   -1.3833 C   0  0  0  0  0  0  0  0  0  0  0  0
    5.2458   -2.0245   -1.8881 N   0  0  0  0  0  0  0  0  0  0  0  0
    4.5641   -1.0795   -1.2420 C   0  0  0  0  0  0  0  0  0  0  0  0
    3.8378   -1.2213   -0.1324 N   0  0  0  0  0  0  0  0  0  0  0  0
    2.7900   -3.8407    2.3052 C   0  0  0  0  0  0  0  0  0  0  0  0
    1.9253   -3.7025    3.3736 N   0  0  0  0  0  0  0  0  0  0  0  0
    1.5182   -2.4397    3.3478 C   0  0  0  0  0  0  0  0  0  0  0  0
    0.6236   -1.7498    4.2069 C   0  0  0  0  0  0  0  0  0  0  0  0
   -0.8827    1.6113    4.8443 N   0  0  0  0  0  0  0  0  0  0  0  0
   -2.9128    2.9160    7.2049 H   0  0  0  0  0  0  0  0  0  0  0  0
   -3.1150    3.3103    5.4979 H   0  0  0  0  0  0  0  0  0  0  0  0
   -1.6170    3.7592    6.3358 H   0  0  0  0  0  0  0  0  0  0  0  0
    0.7035    1.2858    2.6886 H   0  0  0  0  0  0  0  0  0  0  0  0
    2.2506    0.0727    1.1911 H   0  0  0  0  0  0  0  0  0  0  0  0
    4.3414   -4.5514    0.1474 H   0  0  0  0  0  0  0  0  0  0  0  0
    5.6856   -4.0531   -1.9009 H   0  0  0  0  0  0  0  0  0  0  0  0
    4.6321   -0.0929   -1.6669 H   0  0  0  0  0  0  0  0  0  0  0  0
    3.2587   -4.7976    2.1269 H   0  0  0  0  0  0  0  0  0  0  0  0
    0.1852   -2.2940    5.0371 H   0  0  0  0  0  0  0  0  0  0  0  0
  1  2  1  0
  1 22  1  0
  1 23  1  0
  1 24  1  0
  2 21  1  0
  2  3  2  0
  3  4  1  0
  4  5  1  0
  5  6  1  0
  5 21  2  0
  6 20  2  0
  6  7  1  0
  7  8  2  0
  7 25  1  0
  8  9  1  0
  8 26  1  0
  9 19  1  0
  9 10  1  0
 10 11  1  0
 10 17  2  0
 11 16  1  0
 11 12  2  0
 12 13  1  0
 12 27  1  0
 13 14  2  0
 13 28  1  0
 14 15  1  0
 15 16  2  0
 15 29  1  0
 17 18  1  0
 17 30  1  0
 18 19  2  0
 19 20  1  0
 20 31  1  0
M  END
>  <i_m_ct_stereo_status>  (185) 
1

>  <s_m_source_file>  (185) 
/var/tmp/pbs.5076255.sched01/tmpbrsd6n1o/39u_ie0p0h.sdf

>  <i_m_source_file_index>  (185) 
33

>  <i_lp_mmshare_version>  (185) 
48012

>  <i_f3d_flags>  (185) 
0

>  <s_epik_input>  (185) 
W0NIM11jMW5vYyhuMSktYyhbY0hdW2NIXTIpW2NIXWMobjIzKW5bY0hdYzMtYzRbY0hdW2NIXW5bY0hdbjQ=

>  <s_epik_cmdline>  (185) 
J2VwaWtfcHl0aG9uJywgJy1waHQnLCAnMi4wJywgJy1waCcsICc3LjAnLCAnLXRuJywgJzgnLCAnLW1hJywgJzIwMCcsICctaW1hZScsICc8aW5maWxlLm1hZT4nLCAnLW9tYWUnLCAnPG91dGZpbGUubWFlPic=

>  <r_lp_tautomer_probability>  (185) 
1

>  <r_epik_Ionization_Penalty>  (185) 
0.00270578

>  <r_epik_Ionization_Penalty_Charging>  (185) 
0.00270412

>  <r_epik_Ionization_Penalty_Neutral>  (185) 
1.66157e-06

>  <r_epik_State_Penalty>  (185) 
0.0018853

>  <r_epik_Charging_Adjusted_Penalty>  (185) 
0.00458942

>  <i_epik_Tot_Q>  (185) 
0

>  <i_epik_Tot_abs_Q>  (185) 
0

>  <s_lp_Force_Field>  (185) 
OPLS3e

>  <r_lp_Energy>  (185) 
25.309

>  <b_lp_Chiralities_Consistent>  (185) 
1

>  <s_lp_Variant>  (185) 
56:0-1

>  <s_i_glide_gridfile>  (185) 
pfpi4k_grid

>  <i_i_glide_lignum>  (185) 
33

>  <i_i_glide_rotatable_bonds>  (185) 
2

>  <r_i_docking_score>  (185) 
-3.38591

>  <r_i_glide_ligand_efficiency>  (185) 
-0.161234

>  <r_i_glide_ligand_efficiency_sa>  (185) 
-0.444832

>  <r_i_glide_ligand_efficiency_ln>  (185) 
-0.837159

>  <r_i_glide_gscore>  (185) 
-3.38591

>  <r_i_glide_lipo>  (185) 
-0.214835

>  <r_i_glide_hbond>  (185) 
0

>  <r_i_glide_metal>  (185) 
-0

>  <r_i_glide_rewards>  (185) 
-1.56804

>  <r_i_glide_evdw>  (185) 
-23.4013

>  <r_i_glide_ecoul>  (185) 
-4.28274

>  <r_i_glide_erotb>  (185) 
0.465512

>  <r_i_glide_esite>  (185) 
-0.256073

>  <r_i_glide_emodel>  (185) 
-34.3964

>  <r_i_glide_energy>  (185) 
-27.6841

>  <r_i_glide_einternal>  (185) 
0.067705

>  <r_i_glide_intrahb_reward>  (185) 
-0

>  <i_i_glide_confnum>  (185) 
1

>  <i_i_glide_posenum>  (185) 
23

>  <r_i_glide_eff_state_penalty>  (185) 
0

>  <ligand_id>  (185) 
56

>  <original_smiles>  (185) 
Cc1noc(-c2ccn3c(-c4ccncn4)cnc3c2)n1

>  <smiles>  (185) 
[H]c1nc([H])c([H])c(-c2c([H])nc3c([H])c(-c4nc(C([H])([H])[H])no4)c([H])c([H])n23)n1

$$$$
56:0:2
     RDKit          3D

 31 34  0  0  1  0  0  0  0  0999 V2000
   -2.4750    2.9673    6.0951 C   0  0  0  0  0  0  0  0  0  0  0  0
   -1.7762    1.6970    5.7582 C   0  0  0  0  0  0  0  0  0  0  0  0
   -2.0106    0.5672    6.4181 N   0  0  0  0  0  0  0  0  0  0  0  0
   -1.1669   -0.3510    5.7743 O   0  0  0  0  0  0  0  0  0  0  0  0
   -0.5055    0.3434    4.8127 C   0  0  0  0  0  0  0  0  0  0  0  0
    0.4788   -0.3670    3.9833 C   0  0  0  0  0  0  0  0  0  0  0  0
    1.1921    0.3390    2.9805 C   0  0  0  0  0  0  0  0  0  0  0  0
    2.1279   -0.2920    2.1916 C   0  0  0  0  0  0  0  0  0  0  0  0
    2.3712   -1.6343    2.3477 N   0  0  0  0  0  0  0  0  0  0  0  0
    3.2340   -2.5419    1.7142 C   0  0  0  0  0  0  0  0  0  0  0  0
    4.1321   -2.2369    0.5929 C   0  0  0  0  0  0  0  0  0  0  0  0
    3.8756   -1.2517   -0.3808 C   0  0  0  0  0  0  0  0  0  0  0  0
    4.8245   -1.0952   -1.4029 C   0  0  0  0  0  0  0  0  0  0  0  0
    5.9345   -1.8579   -1.4716 N   0  0  0  0  0  0  0  0  0  0  0  0
    6.0615   -2.7904   -0.5286 C   0  0  0  0  0  0  0  0  0  0  0  0
    5.2339   -3.0195    0.4938 N   0  0  0  0  0  0  0  0  0  0  0  0
    3.0374   -3.7487    2.3353 C   0  0  0  0  0  0  0  0  0  0  0  0
    2.0733   -3.6562    3.3273 N   0  0  0  0  0  0  0  0  0  0  0  0
    1.6847   -2.3853    3.3400 C   0  0  0  0  0  0  0  0  0  0  0  0
    0.7361   -1.7136    4.1560 C   0  0  0  0  0  0  0  0  0  0  0  0
   -0.8556    1.6270    4.7631 N   0  0  0  0  0  0  0  0  0  0  0  0
   -3.0157    2.8819    7.0352 H   0  0  0  0  0  0  0  0  0  0  0  0
   -3.1943    3.2062    5.3155 H   0  0  0  0  0  0  0  0  0  0  0  0
   -1.7476    3.7772    6.1720 H   0  0  0  0  0  0  0  0  0  0  0  0
    1.0083    1.4004    2.8292 H   0  0  0  0  0  0  0  0  0  0  0  0
    2.6856    0.2571    1.4420 H   0  0  0  0  0  0  0  0  0  0  0  0
    2.9749   -0.6662   -0.3972 H   0  0  0  0  0  0  0  0  0  0  0  0
    4.6864   -0.3572   -2.1824 H   0  0  0  0  0  0  0  0  0  0  0  0
    6.9448   -3.4026   -0.6004 H   0  0  0  0  0  0  0  0  0  0  0  0
    3.5061   -4.7001    2.1352 H   0  0  0  0  0  0  0  0  0  0  0  0
    0.2178   -2.2820    4.9205 H   0  0  0  0  0  0  0  0  0  0  0  0
  1  2  1  0
  1 22  1  0
  1 23  1  0
  1 24  1  0
  2 21  1  0
  2  3  2  0
  3  4  1  0
  4  5  1  0
  5  6  1  0
  5 21  2  0
  6 20  2  0
  6  7  1  0
  7  8  2  0
  7 25  1  0
  8  9  1  0
  8 26  1  0
  9 19  1  0
  9 10  1  0
 10 11  1  0
 10 17  2  0
 11 16  1  0
 11 12  2  0
 12 13  1  0
 12 27  1  0
 13 14  2  0
 13 28  1  0
 14 15  1  0
 15 16  2  0
 15 29  1  0
 17 18  1  0
 17 30  1  0
 18 19  2  0
 19 20  1  0
 20 31  1  0
M  END
>  <i_m_ct_stereo_status>  (186) 
1

>  <s_m_source_file>  (186) 
/var/tmp/pbs.5076255.sched01/tmpbrsd6n1o/39u_ie0p0h.sdf

>  <i_m_source_file_index>  (186) 
33

>  <i_lp_mmshare_version>  (186) 
48012

>  <i_f3d_flags>  (186) 
0

>  <s_epik_input>  (186) 
W0NIM11jMW5vYyhuMSktYyhbY0hdW2NIXTIpW2NIXWMobjIzKW5bY0hdYzMtYzRbY0hdW2NIXW5bY0hdbjQ=

>  <s_epik_cmdline>  (186) 
J2VwaWtfcHl0aG9uJywgJy1waHQnLCAnMi4wJywgJy1waCcsICc3LjAnLCAnLXRuJywgJzgnLCAnLW1hJywgJzIwMCcsICctaW1hZScsICc8aW5maWxlLm1hZT4nLCAnLW9tYWUnLCAnPG91dGZpbGUubWFlPic=

>  <r_lp_tautomer_probability>  (186) 
1

>  <r_epik_Ionization_Penalty>  (186) 
0.00270578

>  <r_epik_Ionization_Penalty_Charging>  (186) 
0.00270412

>  <r_epik_Ionization_Penalty_Neutral>  (186) 
1.66157e-06

>  <r_epik_State_Penalty>  (186) 
0.0018853

>  <r_epik_Charging_Adjusted_Penalty>  (186) 
0.00458942

>  <i_epik_Tot_Q>  (186) 
0

>  <i_epik_Tot_abs_Q>  (186) 
0

>  <s_lp_Force_Field>  (186) 
OPLS3e

>  <r_lp_Energy>  (186) 
25.309

>  <b_lp_Chiralities_Consistent>  (186) 
1

>  <s_lp_Variant>  (186) 
56:0-1

>  <s_i_glide_gridfile>  (186) 
pfpi4k_grid

>  <i_i_glide_lignum>  (186) 
33

>  <i_i_glide_rotatable_bonds>  (186) 
2

>  <r_i_docking_score>  (186) 
-3.37352

>  <r_i_glide_ligand_efficiency>  (186) 
-0.160644

>  <r_i_glide_ligand_efficiency_sa>  (186) 
-0.443204

>  <r_i_glide_ligand_efficiency_ln>  (186) 
-0.834095

>  <r_i_glide_gscore>  (186) 
-3.37352

>  <r_i_glide_lipo>  (186) 
-0.0953845

>  <r_i_glide_hbond>  (186) 
-0.0711501

>  <r_i_glide_metal>  (186) 
-0

>  <r_i_glide_rewards>  (186) 
-1.55164

>  <r_i_glide_evdw>  (186) 
-22.5167

>  <r_i_glide_ecoul>  (186) 
-5.3475

>  <r_i_glide_erotb>  (186) 
0.465512

>  <r_i_glide_esite>  (186) 
-0.192893

>  <r_i_glide_emodel>  (186) 
-33.9327

>  <r_i_glide_energy>  (186) 
-27.8642

>  <r_i_glide_einternal>  (186) 
1.19143

>  <r_i_glide_intrahb_reward>  (186) 
-0

>  <i_i_glide_confnum>  (186) 
4

>  <i_i_glide_posenum>  (186) 
2

>  <r_i_glide_eff_state_penalty>  (186) 
0

>  <ligand_id>  (186) 
56

>  <original_smiles>  (186) 
Cc1noc(-c2ccn3c(-c4ccncn4)cnc3c2)n1

>  <smiles>  (186) 
[H]c1nc([H])c([H])c(-c2c([H])nc3c([H])c(-c4nc(C([H])([H])[H])no4)c([H])c([H])n23)n1

$$$$
57:0:0
     RDKit          3D

 44 47  0  0  1  0  0  0  0  0999 V2000
    1.0231   -8.7284    4.9053 C   0  0  0  0  0  0  0  0  0  0  0  0
    1.2725   -8.7455    3.3894 C   0  0  0  0  0  0  0  0  0  0  0  0
    0.8651  -10.0872    2.7611 C   0  0  0  0  0  0  0  0  0  0  0  0
    0.5235   -7.7107    2.7891 O   0  0  0  0  0  0  0  0  0  0  0  0
    1.4129   -7.1666    1.8981 C   0  0  1  0  0  0  0  0  0  0  0  0
    1.2777   -5.8547    1.4605 O   0  0  0  0  0  0  0  0  0  0  0  0
    2.6202   -5.3208    1.4397 C   0  0  2  0  0  0  0  0  0  0  0  0
    3.1002   -4.5942    0.1831 C   0  0  1  0  0  0  0  0  0  0  0  0
    2.5240   -3.2999    0.1297 O   0  0  0  0  0  0  0  0  0  0  0  0
    3.5181   -2.3710    0.4132 C   0  0  0  0  0  0  0  0  0  0  0  0
    3.8819   -1.6188   -0.8821 C   0  0  0  0  0  0  0  0  0  0  0  0
    3.0182   -1.4268    1.5129 C   0  0  0  0  0  0  0  0  0  0  0  0
    4.6307   -3.0367    0.8999 O   0  0  0  0  0  0  0  0  0  0  0  0
    4.6080   -4.3060    0.2857 C   0  0  1  0  0  0  0  0  0  0  0  0
    5.4858   -5.3560    1.0408 C   0  0  1  0  0  0  0  0  0  0  0  0
    6.8433   -4.8168    1.5605 C   0  0  0  0  0  0  0  0  0  0  0  0
    7.8144   -4.2907    0.4807 C   0  0  0  0  0  0  0  0  0  0  0  0
    7.3889   -3.4631   -0.3555 O   0  0  0  0  0  0  0  0  0  0  0  0
    8.9987   -4.7003    0.5238 O   0  0  0  0  0  0  0  0  0  0  0  0
    4.7866   -5.9531    2.1502 O   0  0  0  0  0  0  0  0  0  0  0  0
    3.5522   -6.5154    1.7247 C   0  0  1  0  0  0  0  0  0  0  0  0
    2.6495   -7.1777    2.7429 C   0  0  2  0  0  0  0  0  0  0  0  0
    2.6508   -8.5284    3.1375 O   0  0  0  0  0  0  0  0  0  0  0  0
    1.3133   -7.7692    5.3321 H   0  0  0  0  0  0  0  0  0  0  0  0
    1.6099   -9.5169    5.3775 H   0  0  0  0  0  0  0  0  0  0  0  0
   -0.0344   -8.9087    5.1119 H   0  0  0  0  0  0  0  0  0  0  0  0
    1.0449  -10.0761    1.6861 H   0  0  0  0  0  0  0  0  0  0  0  0
   -0.1971  -10.2680    2.9359 H   0  0  0  0  0  0  0  0  0  0  0  0
    1.4387  -10.9034    3.2028 H   0  0  0  0  0  0  0  0  0  0  0  0
    1.4880   -7.8215    1.0207 H   0  0  0  0  0  0  0  0  0  0  0  0
    2.6776   -4.6245    2.2769 H   0  0  0  0  0  0  0  0  0  0  0  0
    2.8589   -5.1561   -0.7144 H   0  0  0  0  0  0  0  0  0  0  0  0
    4.1664   -2.3129   -1.6731 H   0  0  0  0  0  0  0  0  0  0  0  0
    4.7072   -0.9292   -0.6953 H   0  0  0  0  0  0  0  0  0  0  0  0
    3.0163   -1.0566   -1.2240 H   0  0  0  0  0  0  0  0  0  0  0  0
    2.7741   -1.9915    2.4134 H   0  0  0  0  0  0  0  0  0  0  0  0
    2.1272   -0.8946    1.1761 H   0  0  0  0  0  0  0  0  0  0  0  0
    3.7926   -0.6961    1.7506 H   0  0  0  0  0  0  0  0  0  0  0  0
    4.9858   -4.1943   -0.7269 H   0  0  0  0  0  0  0  0  0  0  0  0
    5.7015   -6.1708    0.3500 H   0  0  0  0  0  0  0  0  0  0  0  0
    6.6382   -4.0175    2.2713 H   0  0  0  0  0  0  0  0  0  0  0  0
    7.3498   -5.6109    2.1125 H   0  0  0  0  0  0  0  0  0  0  0  0
    3.6955   -7.1605    0.8529 H   0  0  0  0  0  0  0  0  0  0  0  0
    2.5096   -6.5357    3.6209 H   0  0  0  0  0  0  0  0  0  0  0  0
  1  2  1  0
  1 24  1  0
  1 25  1  0
  1 26  1  0
  2 23  1  0
  2  3  1  0
  2  4  1  0
  3 27  1  0
  3 28  1  0
  3 29  1  0
  4  5  1  0
  5 22  1  0
  5  6  1  0
  5 30  1  6
  6  7  1  0
  7 21  1  0
  7  8  1  0
  7 31  1  1
  8 14  1  0
  8  9  1  0
  8 32  1  6
  9 10  1  0
 10 11  1  0
 10 12  1  0
 10 13  1  0
 11 33  1  0
 11 34  1  0
 11 35  1  0
 12 36  1  0
 12 37  1  0
 12 38  1  0
 13 14  1  0
 14 15  1  0
 14 39  1  6
 15 16  1  0
 15 20  1  0
 15 40  1  6
 16 17  1  0
 16 41  1  0
 16 42  1  0
 17 18  2  0
 17 19  1  0
 20 21  1  0
 21 22  1  0
 21 43  1  6
 22 23  1  0
 22 44  1  1
M  CHG  1  19  -1
M  END
>  <i_m_ct_stereo_status>  (187) 
1

>  <s_m_source_file>  (187) 
/var/tmp/pbs.5076255.sched01/tmpbrsd6n1o/39u_ie0p0h.sdf

>  <i_m_source_file_index>  (187) 
34

>  <i_lp_mmshare_version>  (187) 
48012

>  <i_f3d_flags>  (187) 
0

>  <s_epik_input>  (187) 
W0NIM11DKE8xKShbQ0gzXSlPW0NASF0oW0NAQEhdMTIpW0NASF0zW0NASF0oTzIpW0NAQEhdNFtDQEBIXShPQyhPNCkoW0NIM10pW0NIM10pW0NASF0oTzMpW0NIMl1DKD1PKVtPSF0=

>  <s_epik_cmdline>  (187) 
J2VwaWtfcHl0aG9uJywgJy1waHQnLCAnMi4wJywgJy1waCcsICc3LjAnLCAnLXRuJywgJzgnLCAnLW1hJywgJzIwMCcsICctaW1hZScsICc8aW5maWxlLm1hZT4nLCAnLW9tYWUnLCAnPG91dGZpbGUubWFlPic=

>  <r_epik_Ionization_Penalty>  (187) 
0.000959155

>  <r_epik_Ionization_Penalty_Charging>  (187) 
0.000959155

>  <r_epik_Ionization_Penalty_Neutral>  (187) 
6.40689e-14

>  <r_epik_State_Penalty>  (187) 
0.000623488

>  <r_epik_Charging_Adjusted_Penalty>  (187) 
0.00158264

>  <i_epik_Tot_Q>  (187) 
-1

>  <i_epik_Tot_abs_Q>  (187) 
1

>  <s_epik_Chemistry_Notes>  (187) 
This compound contains an acetal/aminal-like group ( X-CH(R)-Y where X, Y are N, S, or O) that may be acid/base labile, releasing an aldehyde.

>  <s_lp_Force_Field>  (187) 
OPLS3e

>  <r_lp_Energy>  (187) 
20.9574

>  <b_lp_Chiralities_Consistent>  (187) 
1

>  <s_lp_Variant>  (187) 
57:0-1

>  <s_i_glide_gridfile>  (187) 
pfpi4k_grid

>  <i_i_glide_lignum>  (187) 
34

>  <i_i_glide_rotatable_bonds>  (187) 
2

>  <r_i_docking_score>  (187) 
-3.46365

>  <r_i_glide_ligand_efficiency>  (187) 
-0.150593

>  <r_i_glide_ligand_efficiency_sa>  (187) 
-0.428267

>  <r_i_glide_ligand_efficiency_ln>  (187) 
-0.837541

>  <r_i_glide_gscore>  (187) 
-3.46365

>  <r_i_glide_lipo>  (187) 
-0.361511

>  <r_i_glide_hbond>  (187) 
-0.165525

>  <r_i_glide_metal>  (187) 
-0

>  <r_i_glide_rewards>  (187) 
-1.39745

>  <r_i_glide_evdw>  (187) 
-21.7481

>  <r_i_glide_ecoul>  (187) 
-3.61818

>  <r_i_glide_erotb>  (187) 
0.173285

>  <r_i_glide_esite>  (187) 
-0.0823147

>  <r_i_glide_emodel>  (187) 
-30.1286

>  <r_i_glide_energy>  (187) 
-25.3663

>  <r_i_glide_einternal>  (187) 
6.12777

>  <r_i_glide_intrahb_reward>  (187) 
-0

>  <i_i_glide_confnum>  (187) 
5

>  <i_i_glide_posenum>  (187) 
2

>  <r_i_glide_eff_state_penalty>  (187) 
0

>  <ligand_id>  (187) 
57

>  <original_smiles>  (187) 
CC1(C)OC2OC3C4OC(C)(C)OC4C(CC(=O)O)OC3C2O1

>  <smiles>  (187) 
[H]C([H])([H])C1(C([H])([H])[H])OC2([H])OC3([H])C([H])(OC([H])(C([H])([H])C(=O)[O-])C4([H])OC(C([H])([H])[H])(C([H])([H])[H])OC43[H])C2([H])O1

$$$$
57:0:1
     RDKit          3D

 44 47  0  0  1  0  0  0  0  0999 V2000
   -1.3816   -7.1818    4.2612 C   0  0  0  0  0  0  0  0  0  0  0  0
   -0.5070   -7.7902    3.1638 C   0  0  0  0  0  0  0  0  0  0  0  0
   -0.9462   -9.2164    2.8054 C   0  0  0  0  0  0  0  0  0  0  0  0
   -0.5876   -6.9719    2.0172 O   0  0  0  0  0  0  0  0  0  0  0  0
    0.7142   -6.9138    1.5938 C   0  0  1  0  0  0  0  0  0  0  0  0
    1.1587   -5.8541    0.8160 O   0  0  0  0  0  0  0  0  0  0  0  0
    2.4628   -5.5235    1.3397 C   0  0  2  0  0  0  0  0  0  0  0  0
    3.6473   -5.3882    0.3816 C   0  0  1  0  0  0  0  0  0  0  0  0
    3.5435   -4.1588   -0.3184 O   0  0  0  0  0  0  0  0  0  0  0  0
    4.5154   -3.2930    0.1650 C   0  0  0  0  0  0  0  0  0  0  0  0
    5.6009   -3.1229   -0.9135 C   0  0  0  0  0  0  0  0  0  0  0  0
    3.8522   -1.9583    0.5320 C   0  0  0  0  0  0  0  0  0  0  0  0
    5.0778   -3.8298    1.3154 O   0  0  0  0  0  0  0  0  0  0  0  0
    4.9569   -5.2300    1.1835 C   0  0  1  0  0  0  0  0  0  0  0  0
    5.0258   -5.9943    2.5429 C   0  0  1  0  0  0  0  0  0  0  0  0
    6.1319   -5.4668    3.4834 C   0  0  0  0  0  0  0  0  0  0  0  0
    6.2740   -6.2452    4.7955 C   0  0  0  0  0  0  0  0  0  0  0  0
    5.6339   -7.3099    4.9478 O   0  0  0  0  0  0  0  0  0  0  0  0
    7.0548   -5.7480    5.6384 O   0  0  0  0  0  0  0  0  0  0  0  0
    3.7588   -6.0212    3.2148 O   0  0  0  0  0  0  0  0  0  0  0  0
    2.7831   -6.6099    2.3790 C   0  0  1  0  0  0  0  0  0  0  0  0
    1.3848   -6.7401    2.9153 C   0  0  2  0  0  0  0  0  0  0  0  0
    0.8326   -7.8307    3.6100 O   0  0  0  0  0  0  0  0  0  0  0  0
   -1.0493   -6.1741    4.5023 H   0  0  0  0  0  0  0  0  0  0  0  0
   -1.3038   -7.8018    5.1539 H   0  0  0  0  0  0  0  0  0  0  0  0
   -2.4224   -7.1579    3.9347 H   0  0  0  0  0  0  0  0  0  0  0  0
   -0.3002   -9.6457    2.0452 H   0  0  0  0  0  0  0  0  0  0  0  0
   -1.9768   -9.2146    2.4483 H   0  0  0  0  0  0  0  0  0  0  0  0
   -0.8844   -9.8523    3.6878 H   0  0  0  0  0  0  0  0  0  0  0  0
    0.9867   -7.8548    1.0943 H   0  0  0  0  0  0  0  0  0  0  0  0
    2.3388   -4.5722    1.8589 H   0  0  0  0  0  0  0  0  0  0  0  0
    3.6891   -6.2329   -0.3076 H   0  0  0  0  0  0  0  0  0  0  0  0
    5.9962   -4.0905   -1.2202 H   0  0  0  0  0  0  0  0  0  0  0  0
    6.4135   -2.5101   -0.5216 H   0  0  0  0  0  0  0  0  0  0  0  0
    5.1719   -2.6328   -1.7899 H   0  0  0  0  0  0  0  0  0  0  0  0
    3.0832   -2.1077    1.2893 H   0  0  0  0  0  0  0  0  0  0  0  0
    3.3881   -1.5122   -0.3493 H   0  0  0  0  0  0  0  0  0  0  0  0
    4.6037   -1.2694    0.9202 H   0  0  0  0  0  0  0  0  0  0  0  0
    5.7903   -5.5495    0.5607 H   0  0  0  0  0  0  0  0  0  0  0  0
    5.2780   -7.0300    2.3085 H   0  0  0  0  0  0  0  0  0  0  0  0
    7.1019   -5.4781    2.9835 H   0  0  0  0  0  0  0  0  0  0  0  0
    5.9136   -4.4320    3.7437 H   0  0  0  0  0  0  0  0  0  0  0  0
    3.1224   -7.5470    1.9304 H   0  0  0  0  0  0  0  0  0  0  0  0
    1.0571   -5.8072    3.3821 H   0  0  0  0  0  0  0  0  0  0  0  0
  1  2  1  0
  1 24  1  0
  1 25  1  0
  1 26  1  0
  2 23  1  0
  2  3  1  0
  2  4  1  0
  3 27  1  0
  3 28  1  0
  3 29  1  0
  4  5  1  0
  5 22  1  0
  5  6  1  0
  5 30  1  6
  6  7  1  0
  7 21  1  0
  7  8  1  0
  7 31  1  1
  8 14  1  0
  8  9  1  0
  8 32  1  6
  9 10  1  0
 10 11  1  0
 10 12  1  0
 10 13  1  0
 11 33  1  0
 11 34  1  0
 11 35  1  0
 12 36  1  0
 12 37  1  0
 12 38  1  0
 13 14  1  0
 14 15  1  0
 14 39  1  6
 15 16  1  0
 15 20  1  0
 15 40  1  6
 16 17  1  0
 16 41  1  0
 16 42  1  0
 17 18  2  0
 17 19  1  0
 20 21  1  0
 21 22  1  0
 21 43  1  6
 22 23  1  0
 22 44  1  1
M  CHG  1  19  -1
M  END
>  <i_m_ct_stereo_status>  (188) 
1

>  <s_m_source_file>  (188) 
/var/tmp/pbs.5076255.sched01/tmpbrsd6n1o/39u_ie0p0h.sdf

>  <i_m_source_file_index>  (188) 
34

>  <i_lp_mmshare_version>  (188) 
48012

>  <i_f3d_flags>  (188) 
0

>  <s_epik_input>  (188) 
W0NIM11DKE8xKShbQ0gzXSlPW0NASF0oW0NAQEhdMTIpW0NASF0zW0NASF0oTzIpW0NAQEhdNFtDQEBIXShPQyhPNCkoW0NIM10pW0NIM10pW0NASF0oTzMpW0NIMl1DKD1PKVtPSF0=

>  <s_epik_cmdline>  (188) 
J2VwaWtfcHl0aG9uJywgJy1waHQnLCAnMi4wJywgJy1waCcsICc3LjAnLCAnLXRuJywgJzgnLCAnLW1hJywgJzIwMCcsICctaW1hZScsICc8aW5maWxlLm1hZT4nLCAnLW9tYWUnLCAnPG91dGZpbGUubWFlPic=

>  <r_epik_Ionization_Penalty>  (188) 
0.000959155

>  <r_epik_Ionization_Penalty_Charging>  (188) 
0.000959155

>  <r_epik_Ionization_Penalty_Neutral>  (188) 
6.40689e-14

>  <r_epik_State_Penalty>  (188) 
0.000623488

>  <r_epik_Charging_Adjusted_Penalty>  (188) 
0.00158264

>  <i_epik_Tot_Q>  (188) 
-1

>  <i_epik_Tot_abs_Q>  (188) 
1

>  <s_epik_Chemistry_Notes>  (188) 
This compound contains an acetal/aminal-like group ( X-CH(R)-Y where X, Y are N, S, or O) that may be acid/base labile, releasing an aldehyde.

>  <s_lp_Force_Field>  (188) 
OPLS3e

>  <r_lp_Energy>  (188) 
20.9574

>  <b_lp_Chiralities_Consistent>  (188) 
1

>  <s_lp_Variant>  (188) 
57:0-1

>  <s_i_glide_gridfile>  (188) 
pfpi4k_grid

>  <i_i_glide_lignum>  (188) 
34

>  <i_i_glide_rotatable_bonds>  (188) 
2

>  <r_i_docking_score>  (188) 
-3.23065

>  <r_i_glide_ligand_efficiency>  (188) 
-0.140463

>  <r_i_glide_ligand_efficiency_sa>  (188) 
-0.399458

>  <r_i_glide_ligand_efficiency_ln>  (188) 
-0.781201

>  <r_i_glide_gscore>  (188) 
-3.23065

>  <r_i_glide_lipo>  (188) 
-0.116985

>  <r_i_glide_hbond>  (188) 
-0.32

>  <r_i_glide_metal>  (188) 
-0

>  <r_i_glide_rewards>  (188) 
-1.20231

>  <r_i_glide_evdw>  (188) 
-22.3855

>  <r_i_glide_ecoul>  (188) 
-3.38551

>  <r_i_glide_erotb>  (188) 
0.173285

>  <r_i_glide_esite>  (188) 
-0.137543

>  <r_i_glide_emodel>  (188) 
-32.2031

>  <r_i_glide_energy>  (188) 
-25.771

>  <r_i_glide_einternal>  (188) 
1.93757

>  <r_i_glide_intrahb_reward>  (188) 
-0

>  <i_i_glide_confnum>  (188) 
6

>  <i_i_glide_posenum>  (188) 
29

>  <r_i_glide_eff_state_penalty>  (188) 
0

>  <ligand_id>  (188) 
57

>  <original_smiles>  (188) 
CC1(C)OC2OC3C4OC(C)(C)OC4C(CC(=O)O)OC3C2O1

>  <smiles>  (188) 
[H]C([H])([H])C1(C([H])([H])[H])OC2([H])OC3([H])C([H])(OC([H])(C([H])([H])C(=O)[O-])C4([H])OC(C([H])([H])[H])(C([H])([H])[H])OC43[H])C2([H])O1

$$$$
57:0:2
     RDKit          3D

 44 47  0  0  1  0  0  0  0  0999 V2000
   -1.4148    3.2859   10.4025 C   0  0  0  0  0  0  0  0  0  0  0  0
   -2.2108    3.1033    9.1006 C   0  0  0  0  0  0  0  0  0  0  0  0
   -3.6773    3.5099    9.2697 C   0  0  0  0  0  0  0  0  0  0  0  0
   -1.6315    3.8902    8.0825 O   0  0  0  0  0  0  0  0  0  0  0  0
   -1.6107    3.0390    7.0123 C   0  0  1  0  0  0  0  0  0  0  0  0
   -0.6892    3.1796    5.9753 O   0  0  0  0  0  0  0  0  0  0  0  0
   -0.3037    1.8276    5.6384 C   0  0  2  0  0  0  0  0  0  0  0  0
   -0.3434    1.3625    4.1786 C   0  0  1  0  0  0  0  0  0  0  0  0
    0.7499    1.9257    3.4784 O   0  0  0  0  0  0  0  0  0  0  0  0
    1.6742    0.9150    3.2361 C   0  0  0  0  0  0  0  0  0  0  0  0
    1.6598    0.6077    1.7322 C   0  0  0  0  0  0  0  0  0  0  0  0
    3.0517    1.3823    3.7118 C   0  0  0  0  0  0  0  0  0  0  0  0
    1.3333   -0.2213    3.9593 O   0  0  0  0  0  0  0  0  0  0  0  0
   -0.0636   -0.1595    4.1154 C   0  0  1  0  0  0  0  0  0  0  0  0
   -0.5941   -1.0216    5.3053 C   0  0  1  0  0  0  0  0  0  0  0  0
    0.0770   -2.4171    5.3856 C   0  0  0  0  0  0  0  0  0  0  0  0
   -0.4049   -3.2891    6.5599 C   0  0  0  0  0  0  0  0  0  0  0  0
   -0.5816   -2.7619    7.6791 O   0  0  0  0  0  0  0  0  0  0  0  0
   -0.5788   -4.5021    6.3146 O   0  0  0  0  0  0  0  0  0  0  0  0
   -0.5283   -0.3150    6.5498 O   0  0  0  0  0  0  0  0  0  0  0  0
   -1.2141    0.9135    6.4699 C   0  0  1  0  0  0  0  0  0  0  0  0
   -1.2244    1.7749    7.6996 C   0  0  2  0  0  0  0  0  0  0  0  0
   -2.1826    1.7425    8.7180 O   0  0  0  0  0  0  0  0  0  0  0  0
   -0.3758    2.9784   10.2800 H   0  0  0  0  0  0  0  0  0  0  0  0
   -1.8617    2.6843   11.1985 H   0  0  0  0  0  0  0  0  0  0  0  0
   -1.4413    4.3376   10.7157 H   0  0  0  0  0  0  0  0  0  0  0  0
   -4.2271    3.3309    8.3478 H   0  0  0  0  0  0  0  0  0  0  0  0
   -3.7259    4.5749    9.5239 H   0  0  0  0  0  0  0  0  0  0  0  0
   -4.1495    2.9340   10.0704 H   0  0  0  0  0  0  0  0  0  0  0  0
   -2.6127    2.9754    6.5794 H   0  0  0  0  0  0  0  0  0  0  0  0
    0.7199    1.7103    5.9977 H   0  0  0  0  0  0  0  0  0  0  0  0
   -1.2952    1.6289    3.7148 H   0  0  0  0  0  0  0  0  0  0  0  0
    0.6541    0.3755    1.3796 H   0  0  0  0  0  0  0  0  0  0  0  0
    2.3238   -0.2287    1.5054 H   0  0  0  0  0  0  0  0  0  0  0  0
    2.0109    1.4958    1.2070 H   0  0  0  0  0  0  0  0  0  0  0  0
    3.0426    1.5964    4.7798 H   0  0  0  0  0  0  0  0  0  0  0  0
    3.3472    2.2852    3.1728 H   0  0  0  0  0  0  0  0  0  0  0  0
    3.7905    0.6045    3.5120 H   0  0  0  0  0  0  0  0  0  0  0  0
   -0.4813   -0.5429    3.1913 H   0  0  0  0  0  0  0  0  0  0  0  0
   -1.6528   -1.2040    5.1189 H   0  0  0  0  0  0  0  0  0  0  0  0
   -0.0802   -2.9545    4.4478 H   0  0  0  0  0  0  0  0  0  0  0  0
    1.1538   -2.3095    5.4935 H   0  0  0  0  0  0  0  0  0  0  0  0
   -2.2125    0.8009    6.0413 H   0  0  0  0  0  0  0  0  0  0  0  0
   -0.2267    1.8635    8.1349 H   0  0  0  0  0  0  0  0  0  0  0  0
  1  2  1  0
  1 24  1  0
  1 25  1  0
  1 26  1  0
  2 23  1  0
  2  3  1  0
  2  4  1  0
  3 27  1  0
  3 28  1  0
  3 29  1  0
  4  5  1  0
  5 22  1  0
  5  6  1  0
  5 30  1  6
  6  7  1  0
  7 21  1  0
  7  8  1  0
  7 31  1  1
  8 14  1  0
  8  9  1  0
  8 32  1  6
  9 10  1  0
 10 11  1  0
 10 12  1  0
 10 13  1  0
 11 33  1  0
 11 34  1  0
 11 35  1  0
 12 36  1  0
 12 37  1  0
 12 38  1  0
 13 14  1  0
 14 15  1  0
 14 39  1  6
 15 16  1  0
 15 20  1  0
 15 40  1  6
 16 17  1  0
 16 41  1  0
 16 42  1  0
 17 18  2  0
 17 19  1  0
 20 21  1  0
 21 22  1  0
 21 43  1  6
 22 23  1  0
 22 44  1  1
M  CHG  1  19  -1
M  END
>  <i_m_ct_stereo_status>  (189) 
1

>  <s_m_source_file>  (189) 
/var/tmp/pbs.5076255.sched01/tmpbrsd6n1o/39u_ie0p0h.sdf

>  <i_m_source_file_index>  (189) 
34

>  <i_lp_mmshare_version>  (189) 
48012

>  <i_f3d_flags>  (189) 
0

>  <s_epik_input>  (189) 
W0NIM11DKE8xKShbQ0gzXSlPW0NASF0oW0NAQEhdMTIpW0NASF0zW0NASF0oTzIpW0NAQEhdNFtDQEBIXShPQyhPNCkoW0NIM10pW0NIM10pW0NASF0oTzMpW0NIMl1DKD1PKVtPSF0=

>  <s_epik_cmdline>  (189) 
J2VwaWtfcHl0aG9uJywgJy1waHQnLCAnMi4wJywgJy1waCcsICc3LjAnLCAnLXRuJywgJzgnLCAnLW1hJywgJzIwMCcsICctaW1hZScsICc8aW5maWxlLm1hZT4nLCAnLW9tYWUnLCAnPG91dGZpbGUubWFlPic=

>  <r_epik_Ionization_Penalty>  (189) 
0.000959155

>  <r_epik_Ionization_Penalty_Charging>  (189) 
0.000959155

>  <r_epik_Ionization_Penalty_Neutral>  (189) 
6.40689e-14

>  <r_epik_State_Penalty>  (189) 
0.000623488

>  <r_epik_Charging_Adjusted_Penalty>  (189) 
0.00158264

>  <i_epik_Tot_Q>  (189) 
-1

>  <i_epik_Tot_abs_Q>  (189) 
1

>  <s_epik_Chemistry_Notes>  (189) 
This compound contains an acetal/aminal-like group ( X-CH(R)-Y where X, Y are N, S, or O) that may be acid/base labile, releasing an aldehyde.

>  <s_lp_Force_Field>  (189) 
OPLS3e

>  <r_lp_Energy>  (189) 
20.9574

>  <b_lp_Chiralities_Consistent>  (189) 
1

>  <s_lp_Variant>  (189) 
57:0-1

>  <s_i_glide_gridfile>  (189) 
pfpi4k_grid

>  <i_i_glide_lignum>  (189) 
34

>  <i_i_glide_rotatable_bonds>  (189) 
2

>  <r_i_docking_score>  (189) 
-3.09552

>  <r_i_glide_ligand_efficiency>  (189) 
-0.134588

>  <r_i_glide_ligand_efficiency_sa>  (189) 
-0.382749

>  <r_i_glide_ligand_efficiency_ln>  (189) 
-0.748524

>  <r_i_glide_gscore>  (189) 
-3.09552

>  <r_i_glide_lipo>  (189) 
-0.134498

>  <r_i_glide_hbond>  (189) 
-0.105047

>  <r_i_glide_metal>  (189) 
-0

>  <r_i_glide_rewards>  (189) 
-1.21621

>  <r_i_glide_evdw>  (189) 
-21.0001

>  <r_i_glide_ecoul>  (189) 
-4.68338

>  <r_i_glide_erotb>  (189) 
0.173285

>  <r_i_glide_esite>  (189) 
-0.0605345

>  <r_i_glide_emodel>  (189) 
-31.3511

>  <r_i_glide_energy>  (189) 
-25.6834

>  <r_i_glide_einternal>  (189) 
2.67329

>  <r_i_glide_intrahb_reward>  (189) 
-0

>  <i_i_glide_confnum>  (189) 
3

>  <i_i_glide_posenum>  (189) 
34

>  <r_i_glide_eff_state_penalty>  (189) 
0

>  <ligand_id>  (189) 
57

>  <original_smiles>  (189) 
CC1(C)OC2OC3C4OC(C)(C)OC4C(CC(=O)O)OC3C2O1

>  <smiles>  (189) 
[H]C([H])([H])C1(C([H])([H])[H])OC2([H])OC3([H])C([H])(OC([H])(C([H])([H])C(=O)[O-])C4([H])OC(C([H])([H])[H])(C([H])([H])[H])OC43[H])C2([H])O1

$$$$
58:0:0
     RDKit          3D

 49 53  0  0  1  0  0  0  0  0999 V2000
    4.3443   -1.5815   -3.5140 C   0  0  0  0  0  0  0  0  0  0  0  0
    4.0114   -2.6924   -2.8671 C   0  0  0  0  0  0  0  0  0  0  0  0
    2.6315   -3.2908   -2.8931 C   0  0  0  0  0  0  0  0  0  0  0  0
    2.1534   -3.4910   -1.4602 C   0  0  1  0  0  0  0  0  0  0  0  0
    0.8665   -4.1193   -1.5218 O   0  0  0  0  0  0  0  0  0  0  0  0
    3.0409   -4.3322   -0.5554 C   0  0  2  0  0  0  0  0  0  0  0  0
    2.4953   -4.2493    0.7728 O   0  0  0  0  0  0  0  0  0  0  0  0
    3.3588   -4.7574    1.6971 C   0  0  0  0  0  0  0  0  0  0  0  0
    3.1108   -5.8661    2.5463 C   0  0  0  0  0  0  0  0  0  0  0  0
    1.8026   -6.3258    2.5937 O   0  0  0  0  0  0  0  0  0  0  0  0
    1.5066   -7.4614    3.3986 C   0  0  0  0  0  0  0  0  0  0  0  0
    4.1977   -6.4878    3.2239 C   0  0  0  0  0  0  0  0  0  0  0  0
    5.5469   -6.0824    3.0056 C   0  0  0  0  0  0  0  0  0  0  0  0
    5.7840   -4.9763    2.1620 C   0  0  0  0  0  0  0  0  0  0  0  0
    4.6800   -4.3124    1.6410 C   0  0  0  0  0  0  0  0  0  0  0  0
    5.0452   -3.2791    0.6053 C   0  0  1  0  0  0  0  0  0  0  0  0
    4.6662   -1.7858    0.6251 C   0  0  0  0  0  0  0  0  0  0  0  0
    5.9581   -1.0970    0.0527 C   0  0  0  0  0  0  0  0  0  0  0  0
    7.0638   -2.1099    0.0961 N   0  0  1  0  0  0  0  0  0  0  0  0
    8.3892   -1.5731    0.4861 C   0  0  0  0  0  0  0  0  0  0  0  0
    6.4829   -3.0818    1.0195 C   0  0  2  0  0  0  0  0  0  0  0  0
    7.0348   -4.4327    1.4482 C   0  0  0  0  0  0  0  0  0  0  0  0
    4.5813   -4.0036   -0.6934 C   0  0  2  0  0  0  0  0  0  0  0  0
    5.0185   -3.3818   -2.0335 C   0  0  0  0  0  0  0  0  0  0  0  0
    6.2136   -3.4101   -2.3317 O   0  0  0  0  0  0  0  0  0  0  0  0
    5.3440   -1.2021   -3.4149 H   0  0  0  0  0  0  0  0  0  0  0  0
    3.6446   -1.0165   -4.1150 H   0  0  0  0  0  0  0  0  0  0  0  0
    1.9594   -2.6340   -3.4464 H   0  0  0  0  0  0  0  0  0  0  0  0
    2.6709   -4.2256   -3.4404 H   0  0  0  0  0  0  0  0  0  0  0  0
    2.0923   -2.5546   -0.9604 H   0  0  0  0  0  0  0  0  0  0  0  0
    0.6320   -4.2488   -2.4496 H   0  0  0  0  0  0  0  0  0  0  0  0
    2.9004   -5.4144   -0.6932 H   0  0  0  0  0  0  0  0  0  0  0  0
    0.4419   -7.6877    3.3228 H   0  0  0  0  0  0  0  0  0  0  0  0
    1.7224   -7.2750    4.4515 H   0  0  0  0  0  0  0  0  0  0  0  0
    2.0457   -8.3514    3.0705 H   0  0  0  0  0  0  0  0  0  0  0  0
    4.0399   -7.3574    3.8453 H   0  0  0  0  0  0  0  0  0  0  0  0
    6.3657   -6.6508    3.4110 H   0  0  0  0  0  0  0  0  0  0  0  0
    3.7728   -1.5445    0.0482 H   0  0  0  0  0  0  0  0  0  0  0  0
    4.4869   -1.4430    1.6457 H   0  0  0  0  0  0  0  0  0  0  0  0
    5.8141   -0.7460   -0.9672 H   0  0  0  0  0  0  0  0  0  0  0  0
    6.1983   -0.2151    0.6480 H   0  0  0  0  0  0  0  0  0  0  0  0
    8.3305   -1.0122    1.3866 H   0  0  0  0  0  0  0  0  0  0  0  0
    8.7860   -0.8644   -0.2469 H   0  0  0  0  0  0  0  0  0  0  0  0
    9.1449   -2.3545    0.5537 H   0  0  0  0  0  0  0  0  0  0  0  0
    6.4915   -2.5424    1.9734 H   0  0  0  0  0  0  0  0  0  0  0  0
    7.9201   -4.3689    2.0753 H   0  0  0  0  0  0  0  0  0  0  0  0
    7.2581   -5.0648    0.5868 H   0  0  0  0  0  0  0  0  0  0  0  0
    5.0912   -4.9698   -0.6862 H   0  0  0  0  0  0  0  0  0  0  0  0
    7.1363   -2.5707   -0.7985 H   0  0  0  0  0  0  0  0  0  0  0  0
  1  2  2  0
  1 26  1  0
  1 27  1  0
  2 24  1  0
  2  3  1  0
  3  4  1  0
  3 28  1  0
  3 29  1  0
  4  5  1  0
  4  6  1  0
  4 30  1  1
  5 31  1  0
  6 23  1  0
  6  7  1  0
  6 32  1  6
  7  8  1  0
  8 15  2  0
  8  9  1  0
  9 10  1  0
  9 12  2  0
 10 11  1  0
 11 33  1  0
 11 34  1  0
 11 35  1  0
 12 13  1  0
 12 36  1  0
 13 14  2  0
 13 37  1  0
 14 22  1  0
 14 15  1  0
 15 16  1  0
 16 21  1  0
 16 17  1  1
 16 23  1  0
 17 18  1  0
 17 38  1  0
 17 39  1  0
 18 19  1  0
 18 40  1  0
 18 41  1  0
 19 20  1  0
 19 21  1  0
 19 49  1  6
 20 42  1  0
 20 43  1  0
 20 44  1  0
 21 22  1  0
 21 45  1  1
 22 46  1  0
 22 47  1  0
 23 24  1  0
 23 48  1  1
 24 25  2  0
M  CHG  1  19   1
M  END
>  <i_m_ct_stereo_status>  (190) 
1

>  <s_m_source_file>  (190) 
/var/tmp/pbs.5076255.sched01/tmpbrsd6n1o/39u_ie0p0h.sdf

>  <i_m_source_file_index>  (190) 
35

>  <i_lp_mmshare_version>  (190) 
48012

>  <i_f3d_flags>  (190) 
0

>  <s_epik_input>  (190) 
W09IXVtDQEBIXTFbQ0gyXUMoPVtDSDJdKUMoPU8pW0NAQEhdMltDQEhdMU9jKGMzW0NAQF0yNDUpYyhPW0NIM10pW2NIXVtjSF1jM1tDSDJdW0NASF01TihbQ0gzXSlbQ0gyXVtDSDJdNA==

>  <s_epik_cmdline>  (190) 
J2VwaWtfcHl0aG9uJywgJy1waHQnLCAnMi4wJywgJy1waCcsICc3LjAnLCAnLXRuJywgJzgnLCAnLW1hJywgJzIwMCcsICctaW1hZScsICc8aW5maWxlLm1hZT4nLCAnLW9tYWUnLCAnPG91dGZpbGUubWFlPic=

>  <r_lp_tautomer_probability>  (190) 
1

>  <r_epik_Ionization_Penalty>  (190) 
0.017158

>  <r_epik_Ionization_Penalty_Charging>  (190) 
0.0171561

>  <r_epik_Ionization_Penalty_Neutral>  (190) 
1.8769e-06

>  <r_epik_State_Penalty>  (190) 
0.0135822

>  <r_epik_Charging_Adjusted_Penalty>  (190) 
0.0307383

>  <i_epik_Tot_Q>  (190) 
1

>  <i_epik_Tot_abs_Q>  (190) 
1

>  <s_lp_Force_Field>  (190) 
OPLS3e

>  <r_lp_Energy>  (190) 
80.4682

>  <b_lp_Chiralities_Consistent>  (190) 
1

>  <s_lp_Variant>  (190) 
58:0-1

>  <s_i_glide_gridfile>  (190) 
pfpi4k_grid

>  <i_i_glide_lignum>  (190) 
35

>  <i_i_glide_rotatable_bonds>  (190) 
2

>  <r_i_docking_score>  (190) 
-4.40509

>  <r_i_glide_ligand_efficiency>  (190) 
-0.176204

>  <r_i_glide_ligand_efficiency_sa>  (190) 
-0.515222

>  <r_i_glide_ligand_efficiency_ln>  (190) 
-1.04414

>  <r_i_glide_gscore>  (190) 
-4.40509

>  <r_i_glide_lipo>  (190) 
-0.676636

>  <r_i_glide_hbond>  (190) 
0

>  <r_i_glide_metal>  (190) 
-0

>  <r_i_glide_rewards>  (190) 
-1.72817

>  <r_i_glide_evdw>  (190) 
-11.8761

>  <r_i_glide_ecoul>  (190) 
-9.32555

>  <r_i_glide_erotb>  (190) 
0

>  <r_i_glide_esite>  (190) 
-0.00764245

>  <r_i_glide_emodel>  (190) 
-31.8751

>  <r_i_glide_energy>  (190) 
-21.2016

>  <r_i_glide_einternal>  (190) 
1.40819

>  <r_i_glide_intrahb_reward>  (190) 
-0.5

>  <i_i_glide_confnum>  (190) 
2

>  <i_i_glide_posenum>  (190) 
20

>  <r_i_glide_eff_state_penalty>  (190) 
0

>  <ligand_id>  (190) 
58

>  <original_smiles>  (190) 
C=C1CC(O)C2Oc3c(OC)ccc4c3C3(CCN(C)C3C4)C2C1=O

>  <smiles>  (190) 
[H]OC1([H])C([H])([H])C(=C([H])[H])C(=O)C2([H])C1([H])Oc1c(OC([H])([H])[H])c([H])c([H])c3c1C21C([H])([H])C([H])([H])[N+]([H])(C([H])([H])[H])C1([H])C3([H])[H]

$$$$
58:0:1
     RDKit          3D

 49 53  0  0  1  0  0  0  0  0999 V2000
    4.2609   -1.1750   -2.9763 C   0  0  0  0  0  0  0  0  0  0  0  0
    4.1625   -2.4038   -2.4589 C   0  0  0  0  0  0  0  0  0  0  0  0
    2.8869   -3.1995   -2.4744 C   0  0  0  0  0  0  0  0  0  0  0  0
    2.5385   -3.6716   -1.0556 C   0  0  1  0  0  0  0  0  0  0  0  0
    1.4216   -4.5194   -1.1319 O   0  0  0  0  0  0  0  0  0  0  0  0
    3.6617   -4.4815   -0.3824 C   0  0  2  0  0  0  0  0  0  0  0  0
    3.2218   -4.6919    0.9772 O   0  0  0  0  0  0  0  0  0  0  0  0
    4.2243   -5.1623    1.7677 C   0  0  0  0  0  0  0  0  0  0  0  0
    4.2286   -6.3945    2.4699 C   0  0  0  0  0  0  0  0  0  0  0  0
    3.0231   -7.0660    2.5322 O   0  0  0  0  0  0  0  0  0  0  0  0
    2.9958   -8.3678    3.1057 C   0  0  0  0  0  0  0  0  0  0  0  0
    5.4573   -6.9067    2.9891 C   0  0  0  0  0  0  0  0  0  0  0  0
    6.6997   -6.2645    2.7449 C   0  0  0  0  0  0  0  0  0  0  0  0
    6.6830   -5.0528    2.0392 C   0  0  0  0  0  0  0  0  0  0  0  0
    5.4461   -4.5059    1.6898 C   0  0  0  0  0  0  0  0  0  0  0  0
    5.5364   -3.2972    0.7978 C   0  0  1  0  0  0  0  0  0  0  0  0
    4.9365   -1.8970    1.0672 C   0  0  0  0  0  0  0  0  0  0  0  0
    6.0580   -0.9342    0.5231 C   0  0  0  0  0  0  0  0  0  0  0  0
    7.3001   -1.7625    0.3298 N   0  0  1  0  0  0  0  0  0  0  0  0
    8.5795   -1.0967    0.6760 C   0  0  0  0  0  0  0  0  0  0  0  0
    6.9550   -2.9394    1.1129 C   0  0  2  0  0  0  0  0  0  0  0  0
    7.7614   -4.2120    1.3552 C   0  0  0  0  0  0  0  0  0  0  0  0
    5.0959   -3.8855   -0.5496 C   0  0  2  0  0  0  0  0  0  0  0  0
    5.3221   -3.0401   -1.8052 C   0  0  0  0  0  0  0  0  0  0  0  0
    6.4883   -2.8761   -2.1710 O   0  0  0  0  0  0  0  0  0  0  0  0
    5.1900   -0.6409   -2.9075 H   0  0  0  0  0  0  0  0  0  0  0  0
    3.4191   -0.6803   -3.4391 H   0  0  0  0  0  0  0  0  0  0  0  0
    2.0677   -2.6143   -2.8991 H   0  0  0  0  0  0  0  0  0  0  0  0
    3.0610   -4.0201   -3.1658 H   0  0  0  0  0  0  0  0  0  0  0  0
    2.2936   -2.8050   -0.4391 H   0  0  0  0  0  0  0  0  0  0  0  0
    1.4724   -4.9957   -1.9458 H   0  0  0  0  0  0  0  0  0  0  0  0
    3.8145   -5.4803   -0.7640 H   0  0  0  0  0  0  0  0  0  0  0  0
    1.9767   -8.7555    3.0717 H   0  0  0  0  0  0  0  0  0  0  0  0
    3.2981   -8.3547    4.1534 H   0  0  0  0  0  0  0  0  0  0  0  0
    3.6237   -9.0711    2.5560 H   0  0  0  0  0  0  0  0  0  0  0  0
    5.4836   -7.8597    3.4901 H   0  0  0  0  0  0  0  0  0  0  0  0
    7.6392   -6.7265    3.0263 H   0  0  0  0  0  0  0  0  0  0  0  0
    3.9787   -1.7166    0.5846 H   0  0  0  0  0  0  0  0  0  0  0  0
    4.8101   -1.7217    2.1383 H   0  0  0  0  0  0  0  0  0  0  0  0
    5.7785   -0.4694   -0.4231 H   0  0  0  0  0  0  0  0  0  0  0  0
    6.2051   -0.1134    1.2234 H   0  0  0  0  0  0  0  0  0  0  0  0
    8.5456   -0.7076    1.6771 H   0  0  0  0  0  0  0  0  0  0  0  0
    8.7658   -0.2061    0.0794 H   0  0  0  0  0  0  0  0  0  0  0  0
    9.4568   -1.7403    0.5978 H   0  0  0  0  0  0  0  0  0  0  0  0
    6.9025   -2.5189    2.1077 H   0  0  0  0  0  0  0  0  0  0  0  0
    8.6439   -4.0732    1.9834 H   0  0  0  0  0  0  0  0  0  0  0  0
    8.0410   -4.6631    0.4063 H   0  0  0  0  0  0  0  0  0  0  0  0
    5.7545   -4.7396   -0.6992 H   0  0  0  0  0  0  0  0  0  0  0  0
    7.3370   -2.0986   -0.6236 H   0  0  0  0  0  0  0  0  0  0  0  0
  1  2  2  0
  1 26  1  0
  1 27  1  0
  2 24  1  0
  2  3  1  0
  3  4  1  0
  3 28  1  0
  3 29  1  0
  4  5  1  0
  4  6  1  0
  4 30  1  1
  5 31  1  0
  6 23  1  0
  6  7  1  0
  6 32  1  6
  7  8  1  0
  8 15  2  0
  8  9  1  0
  9 10  1  0
  9 12  2  0
 10 11  1  0
 11 33  1  0
 11 34  1  0
 11 35  1  0
 12 13  1  0
 12 36  1  0
 13 14  2  0
 13 37  1  0
 14 22  1  0
 14 15  1  0
 15 16  1  0
 16 21  1  0
 16 17  1  1
 16 23  1  0
 17 18  1  0
 17 38  1  0
 17 39  1  0
 18 19  1  0
 18 40  1  0
 18 41  1  0
 19 20  1  0
 19 21  1  0
 19 49  1  6
 20 42  1  0
 20 43  1  0
 20 44  1  0
 21 22  1  0
 21 45  1  1
 22 46  1  0
 22 47  1  0
 23 24  1  0
 23 48  1  6
 24 25  2  0
M  CHG  1  19   1
M  END
>  <i_m_ct_stereo_status>  (191) 
1

>  <s_m_source_file>  (191) 
/var/tmp/pbs.5076255.sched01/tmpbrsd6n1o/39u_ie0p0h.sdf

>  <i_m_source_file_index>  (191) 
35

>  <i_lp_mmshare_version>  (191) 
48012

>  <i_f3d_flags>  (191) 
0

>  <s_epik_input>  (191) 
W09IXVtDQEBIXTFbQ0gyXUMoPVtDSDJdKUMoPU8pW0NAQEhdMltDQEhdMU9jKGMzW0NAQF0yNDUpYyhPW0NIM10pW2NIXVtjSF1jM1tDSDJdW0NASF01TihbQ0gzXSlbQ0gyXVtDSDJdNA==

>  <s_epik_cmdline>  (191) 
J2VwaWtfcHl0aG9uJywgJy1waHQnLCAnMi4wJywgJy1waCcsICc3LjAnLCAnLXRuJywgJzgnLCAnLW1hJywgJzIwMCcsICctaW1hZScsICc8aW5maWxlLm1hZT4nLCAnLW9tYWUnLCAnPG91dGZpbGUubWFlPic=

>  <r_lp_tautomer_probability>  (191) 
1

>  <r_epik_Ionization_Penalty>  (191) 
0.017158

>  <r_epik_Ionization_Penalty_Charging>  (191) 
0.0171561

>  <r_epik_Ionization_Penalty_Neutral>  (191) 
1.8769e-06

>  <r_epik_State_Penalty>  (191) 
0.0135822

>  <r_epik_Charging_Adjusted_Penalty>  (191) 
0.0307383

>  <i_epik_Tot_Q>  (191) 
1

>  <i_epik_Tot_abs_Q>  (191) 
1

>  <s_lp_Force_Field>  (191) 
OPLS3e

>  <r_lp_Energy>  (191) 
80.4682

>  <b_lp_Chiralities_Consistent>  (191) 
1

>  <s_lp_Variant>  (191) 
58:0-1

>  <s_i_glide_gridfile>  (191) 
pfpi4k_grid

>  <i_i_glide_lignum>  (191) 
35

>  <i_i_glide_rotatable_bonds>  (191) 
2

>  <r_i_docking_score>  (191) 
-4.15528

>  <r_i_glide_ligand_efficiency>  (191) 
-0.166211

>  <r_i_glide_ligand_efficiency_sa>  (191) 
-0.486004

>  <r_i_glide_ligand_efficiency_ln>  (191) 
-0.984925

>  <r_i_glide_gscore>  (191) 
-4.15528

>  <r_i_glide_lipo>  (191) 
-0.66264

>  <r_i_glide_hbond>  (191) 
0

>  <r_i_glide_metal>  (191) 
-0

>  <r_i_glide_rewards>  (191) 
-1.67928

>  <r_i_glide_evdw>  (191) 
-15.797

>  <r_i_glide_ecoul>  (191) 
-6.71866

>  <r_i_glide_erotb>  (191) 
0

>  <r_i_glide_esite>  (191) 
-0.0157084

>  <r_i_glide_emodel>  (191) 
-33.3975

>  <r_i_glide_energy>  (191) 
-22.5156

>  <r_i_glide_einternal>  (191) 
0.446184

>  <r_i_glide_intrahb_reward>  (191) 
-0.5

>  <i_i_glide_confnum>  (191) 
1

>  <i_i_glide_posenum>  (191) 
22

>  <r_i_glide_eff_state_penalty>  (191) 
0

>  <ligand_id>  (191) 
58

>  <original_smiles>  (191) 
C=C1CC(O)C2Oc3c(OC)ccc4c3C3(CCN(C)C3C4)C2C1=O

>  <smiles>  (191) 
[H]OC1([H])C([H])([H])C(=C([H])[H])C(=O)C2([H])C1([H])Oc1c(OC([H])([H])[H])c([H])c([H])c3c1C21C([H])([H])C([H])([H])[N+]([H])(C([H])([H])[H])C1([H])C3([H])[H]

$$$$
58:0:2
     RDKit          3D

 49 53  0  0  1  0  0  0  0  0999 V2000
    4.9306   -1.0586   -0.7482 C   0  0  0  0  0  0  0  0  0  0  0  0
    4.6237   -2.2624   -0.2354 C   0  0  0  0  0  0  0  0  0  0  0  0
    3.7541   -3.2854   -0.9335 C   0  0  0  0  0  0  0  0  0  0  0  0
    2.6000   -3.7181   -0.0267 C   0  0  1  0  0  0  0  0  0  0  0  0
    1.8176   -4.6605   -0.7154 O   0  0  0  0  0  0  0  0  0  0  0  0
    3.1151   -4.3281    1.2933 C   0  0  2  0  0  0  0  0  0  0  0  0
    1.9306   -4.5550    2.0945 O   0  0  0  0  0  0  0  0  0  0  0  0
    2.1879   -4.7285    3.4232 C   0  0  0  0  0  0  0  0  0  0  0  0
    1.8395   -5.8851    4.1622 C   0  0  0  0  0  0  0  0  0  0  0  0
    0.9536   -6.7502    3.5568 O   0  0  0  0  0  0  0  0  0  0  0  0
    0.6501   -7.9857    4.1975 C   0  0  0  0  0  0  0  0  0  0  0  0
    2.4713   -6.1351    5.4183 C   0  0  0  0  0  0  0  0  0  0  0  0
    3.4922   -5.2911    5.9198 C   0  0  0  0  0  0  0  0  0  0  0  0
    3.8111   -4.1272    5.1997 C   0  0  0  0  0  0  0  0  0  0  0  0
    3.0668   -3.8478    4.0457 C   0  0  0  0  0  0  0  0  0  0  0  0
    3.6074   -2.6980    3.2452 C   0  0  1  0  0  0  0  0  0  0  0  0
    2.8469   -1.4149    2.8410 C   0  0  0  0  0  0  0  0  0  0  0  0
    3.9425   -0.2912    2.9871 C   0  0  0  0  0  0  0  0  0  0  0  0
    5.0622   -0.8675    3.7935 N   0  0  1  0  0  0  0  0  0  0  0  0
    5.6760    0.0787    4.7567 C   0  0  0  0  0  0  0  0  0  0  0  0
    4.4044   -2.0445    4.3560 C   0  0  2  0  0  0  0  0  0  0  0  0
    4.9822   -3.1383    5.2375 C   0  0  0  0  0  0  0  0  0  0  0  0
    4.2197   -3.4591    2.0272 C   0  0  2  0  0  0  0  0  0  0  0  0
    5.1280   -2.6502    1.0925 C   0  0  0  0  0  0  0  0  0  0  0  0
    6.2293   -2.3055    1.5228 O   0  0  0  0  0  0  0  0  0  0  0  0
    5.5418   -0.3551   -0.2036 H   0  0  0  0  0  0  0  0  0  0  0  0
    4.5469   -0.7508   -1.7087 H   0  0  0  0  0  0  0  0  0  0  0  0
    3.3689   -2.8774   -1.8690 H   0  0  0  0  0  0  0  0  0  0  0  0
    4.3758   -4.1472   -1.1860 H   0  0  0  0  0  0  0  0  0  0  0  0
    1.9648   -2.8593    0.1828 H   0  0  0  0  0  0  0  0  0  0  0  0
    2.3604   -5.1636   -1.3149 H   0  0  0  0  0  0  0  0  0  0  0  0
    3.5701   -5.3004    1.0880 H   0  0  0  0  0  0  0  0  0  0  0  0
   -0.0468   -8.5556    3.5813 H   0  0  0  0  0  0  0  0  0  0  0  0
    0.1699   -7.8255    5.1628 H   0  0  0  0  0  0  0  0  0  0  0  0
    1.5358   -8.6080    4.3318 H   0  0  0  0  0  0  0  0  0  0  0  0
    2.2640   -7.0397    5.9625 H   0  0  0  0  0  0  0  0  0  0  0  0
    4.0623   -5.5659    6.7971 H   0  0  0  0  0  0  0  0  0  0  0  0
    2.4203   -1.4470    1.8368 H   0  0  0  0  0  0  0  0  0  0  0  0
    2.0287   -1.2123    3.5380 H   0  0  0  0  0  0  0  0  0  0  0  0
    4.3149    0.0485    2.0196 H   0  0  0  0  0  0  0  0  0  0  0  0
    3.5071    0.5865    3.4728 H   0  0  0  0  0  0  0  0  0  0  0  0
    4.9425    0.4879    5.4591 H   0  0  0  0  0  0  0  0  0  0  0  0
    6.1341    0.9198    4.2260 H   0  0  0  0  0  0  0  0  0  0  0  0
    6.4628   -0.4025    5.3410 H   0  0  0  0  0  0  0  0  0  0  0  0
    3.6916   -1.5992    5.0603 H   0  0  0  0  0  0  0  0  0  0  0  0
    5.2232   -2.8109    6.2528 H   0  0  0  0  0  0  0  0  0  0  0  0
    5.8531   -3.6001    4.7699 H   0  0  0  0  0  0  0  0  0  0  0  0
    4.9058   -4.1761    2.4798 H   0  0  0  0  0  0  0  0  0  0  0  0
    5.7717   -1.1978    3.1495 H   0  0  0  0  0  0  0  0  0  0  0  0
  1  2  2  0
  1 26  1  0
  1 27  1  0
  2 24  1  0
  2  3  1  0
  3  4  1  0
  3 28  1  0
  3 29  1  0
  4  5  1  0
  4  6  1  0
  4 30  1  1
  5 31  1  0
  6 23  1  0
  6  7  1  0
  6 32  1  6
  7  8  1  0
  8 15  2  0
  8  9  1  0
  9 10  1  0
  9 12  2  0
 10 11  1  0
 11 33  1  0
 11 34  1  0
 11 35  1  0
 12 13  1  0
 12 36  1  0
 13 14  2  0
 13 37  1  0
 14 22  1  0
 14 15  1  0
 15 16  1  0
 16 21  1  0
 16 17  1  6
 16 23  1  0
 17 18  1  0
 17 38  1  0
 17 39  1  0
 18 19  1  0
 18 40  1  0
 18 41  1  0
 19 20  1  0
 19 21  1  0
 19 49  1  6
 20 42  1  0
 20 43  1  0
 20 44  1  0
 21 22  1  0
 21 45  1  1
 22 46  1  0
 22 47  1  0
 23 24  1  0
 23 48  1  1
 24 25  2  0
M  CHG  1  19   1
M  END
>  <i_m_ct_stereo_status>  (192) 
1

>  <s_m_source_file>  (192) 
/var/tmp/pbs.5076255.sched01/tmpbrsd6n1o/39u_ie0p0h.sdf

>  <i_m_source_file_index>  (192) 
35

>  <i_lp_mmshare_version>  (192) 
48012

>  <i_f3d_flags>  (192) 
0

>  <s_epik_input>  (192) 
W09IXVtDQEBIXTFbQ0gyXUMoPVtDSDJdKUMoPU8pW0NAQEhdMltDQEhdMU9jKGMzW0NAQF0yNDUpYyhPW0NIM10pW2NIXVtjSF1jM1tDSDJdW0NASF01TihbQ0gzXSlbQ0gyXVtDSDJdNA==

>  <s_epik_cmdline>  (192) 
J2VwaWtfcHl0aG9uJywgJy1waHQnLCAnMi4wJywgJy1waCcsICc3LjAnLCAnLXRuJywgJzgnLCAnLW1hJywgJzIwMCcsICctaW1hZScsICc8aW5maWxlLm1hZT4nLCAnLW9tYWUnLCAnPG91dGZpbGUubWFlPic=

>  <r_lp_tautomer_probability>  (192) 
1

>  <r_epik_Ionization_Penalty>  (192) 
0.017158

>  <r_epik_Ionization_Penalty_Charging>  (192) 
0.0171561

>  <r_epik_Ionization_Penalty_Neutral>  (192) 
1.8769e-06

>  <r_epik_State_Penalty>  (192) 
0.0135822

>  <r_epik_Charging_Adjusted_Penalty>  (192) 
0.0307383

>  <i_epik_Tot_Q>  (192) 
1

>  <i_epik_Tot_abs_Q>  (192) 
1

>  <s_lp_Force_Field>  (192) 
OPLS3e

>  <r_lp_Energy>  (192) 
80.4682

>  <b_lp_Chiralities_Consistent>  (192) 
1

>  <s_lp_Variant>  (192) 
58:0-1

>  <s_i_glide_gridfile>  (192) 
pfpi4k_grid

>  <i_i_glide_lignum>  (192) 
35

>  <i_i_glide_rotatable_bonds>  (192) 
2

>  <r_i_docking_score>  (192) 
-3.70227

>  <r_i_glide_ligand_efficiency>  (192) 
-0.148091

>  <r_i_glide_ligand_efficiency_sa>  (192) 
-0.43302

>  <r_i_glide_ligand_efficiency_ln>  (192) 
-0.877549

>  <r_i_glide_gscore>  (192) 
-3.70227

>  <r_i_glide_lipo>  (192) 
-0.183958

>  <r_i_glide_hbond>  (192) 
-0.00106625

>  <r_i_glide_metal>  (192) 
-0

>  <r_i_glide_rewards>  (192) 
-1.62407

>  <r_i_glide_evdw>  (192) 
-14.8846

>  <r_i_glide_ecoul>  (192) 
-7.6596

>  <r_i_glide_erotb>  (192) 
0

>  <r_i_glide_esite>  (192) 
0

>  <r_i_glide_emodel>  (192) 
-32.6005

>  <r_i_glide_energy>  (192) 
-22.5442

>  <r_i_glide_einternal>  (192) 
0.788031

>  <r_i_glide_intrahb_reward>  (192) 
-0.5

>  <i_i_glide_confnum>  (192) 
2

>  <i_i_glide_posenum>  (192) 
33

>  <r_i_glide_eff_state_penalty>  (192) 
0

>  <ligand_id>  (192) 
58

>  <original_smiles>  (192) 
C=C1CC(O)C2Oc3c(OC)ccc4c3C3(CCN(C)C3C4)C2C1=O

>  <smiles>  (192) 
[H]OC1([H])C([H])([H])C(=C([H])[H])C(=O)C2([H])C1([H])Oc1c(OC([H])([H])[H])c([H])c([H])c3c1C21C([H])([H])C([H])([H])[N+]([H])(C([H])([H])[H])C1([H])C3([H])[H]

$$$$
58:1:0
     RDKit          3D

 48 52  0  0  1  0  0  0  0  0999 V2000
    4.1616   -0.9641   -2.8400 C   0  0  0  0  0  0  0  0  0  0  0  0
    4.0962   -2.2374   -2.4273 C   0  0  0  0  0  0  0  0  0  0  0  0
    2.8334   -3.0625   -2.4315 C   0  0  0  0  0  0  0  0  0  0  0  0
    2.5720   -3.6676   -1.0424 C   0  0  1  0  0  0  0  0  0  0  0  0
    1.4372   -4.5082   -1.1328 O   0  0  0  0  0  0  0  0  0  0  0  0
    3.7745   -4.4853   -0.5219 C   0  0  2  0  0  0  0  0  0  0  0  0
    3.4084   -4.8277    0.8299 O   0  0  0  0  0  0  0  0  0  0  0  0
    4.4829   -5.2486    1.5790 C   0  0  0  0  0  0  0  0  0  0  0  0
    4.5682   -6.4852    2.2638 C   0  0  0  0  0  0  0  0  0  0  0  0
    3.4054   -7.2196    2.3580 O   0  0  0  0  0  0  0  0  0  0  0  0
    3.4650   -8.5215    2.9255 C   0  0  0  0  0  0  0  0  0  0  0  0
    5.8424   -6.9435    2.7443 C   0  0  0  0  0  0  0  0  0  0  0  0
    7.0414   -6.2308    2.4818 C   0  0  0  0  0  0  0  0  0  0  0  0
    6.9414   -4.9987    1.8113 C   0  0  0  0  0  0  0  0  0  0  0  0
    5.6583   -4.5299    1.4849 C   0  0  0  0  0  0  0  0  0  0  0  0
    5.6593   -3.2717    0.6519 C   0  0  1  0  0  0  0  0  0  0  0  0
    5.0123   -1.9231    1.0132 C   0  0  0  0  0  0  0  0  0  0  0  0
    6.0858   -0.8840    0.5403 C   0  0  0  0  0  0  0  0  0  0  0  0
    7.3153   -1.6373    0.1927 N   0  0  0  0  0  0  0  0  0  0  0  0
    8.5501   -0.9763    0.5944 C   0  0  0  0  0  0  0  0  0  0  0  0
    7.0591   -2.8363    0.9502 C   0  0  2  0  0  0  0  0  0  0  0  0
    7.9338   -4.0662    1.1400 C   0  0  0  0  0  0  0  0  0  0  0  0
    5.1757   -3.8241   -0.6974 C   0  0  2  0  0  0  0  0  0  0  0  0
    5.3009   -2.9230   -1.9196 C   0  0  0  0  0  0  0  0  0  0  0  0
    6.4161   -2.8044   -2.4163 O   0  0  0  0  0  0  0  0  0  0  0  0
    5.0839   -0.4152   -2.7766 H   0  0  0  0  0  0  0  0  0  0  0  0
    3.2862   -0.4455   -3.2003 H   0  0  0  0  0  0  0  0  0  0  0  0
    1.9865   -2.4543   -2.7553 H   0  0  0  0  0  0  0  0  0  0  0  0
    2.9676   -3.8402   -3.1870 H   0  0  0  0  0  0  0  0  0  0  0  0
    2.3552   -2.8585   -0.3423 H   0  0  0  0  0  0  0  0  0  0  0  0
    1.6295   -5.0957   -1.8581 H   0  0  0  0  0  0  0  0  0  0  0  0
    3.9469   -5.4227   -1.0317 H   0  0  0  0  0  0  0  0  0  0  0  0
    2.4658   -8.9529    2.9345 H   0  0  0  0  0  0  0  0  0  0  0  0
    3.8138   -8.4970    3.9577 H   0  0  0  0  0  0  0  0  0  0  0  0
    4.0999   -9.1899    2.3430 H   0  0  0  0  0  0  0  0  0  0  0  0
    5.9323   -7.9034    3.2309 H   0  0  0  0  0  0  0  0  0  0  0  0
    8.0139   -6.6382    2.7341 H   0  0  0  0  0  0  0  0  0  0  0  0
    4.0497   -1.7411    0.5415 H   0  0  0  0  0  0  0  0  0  0  0  0
    4.8808   -1.8330    2.0910 H   0  0  0  0  0  0  0  0  0  0  0  0
    5.7648   -0.3122   -0.3298 H   0  0  0  0  0  0  0  0  0  0  0  0
    6.2311   -0.1614    1.3435 H   0  0  0  0  0  0  0  0  0  0  0  0
    9.4415   -1.5797    0.4307 H   0  0  0  0  0  0  0  0  0  0  0  0
    8.5266   -0.6578    1.6373 H   0  0  0  0  0  0  0  0  0  0  0  0
    8.7029   -0.0412    0.0794 H   0  0  0  0  0  0  0  0  0  0  0  0
    6.9701   -2.4833    1.9807 H   0  0  0  0  0  0  0  0  0  0  0  0
    8.8174   -3.8869    1.7493 H   0  0  0  0  0  0  0  0  0  0  0  0
    8.2288   -4.4855    0.1804 H   0  0  0  0  0  0  0  0  0  0  0  0
    5.8678   -4.6386   -0.9201 H   0  0  0  0  0  0  0  0  0  0  0  0
  1  2  2  0
  1 26  1  0
  1 27  1  0
  2 24  1  0
  2  3  1  0
  3  4  1  0
  3 28  1  0
  3 29  1  0
  4  5  1  0
  4  6  1  0
  4 30  1  1
  5 31  1  0
  6 23  1  0
  6  7  1  0
  6 32  1  6
  7  8  1  0
  8 15  2  0
  8  9  1  0
  9 10  1  0
  9 12  2  0
 10 11  1  0
 11 33  1  0
 11 34  1  0
 11 35  1  0
 12 13  1  0
 12 36  1  0
 13 14  2  0
 13 37  1  0
 14 22  1  0
 14 15  1  0
 15 16  1  0
 16 21  1  0
 16 17  1  1
 16 23  1  0
 17 18  1  0
 17 38  1  0
 17 39  1  0
 18 19  1  0
 18 40  1  0
 18 41  1  0
 19 20  1  0
 19 21  1  0
 20 42  1  0
 20 43  1  0
 20 44  1  0
 21 22  1  0
 21 45  1  1
 22 46  1  0
 22 47  1  0
 23 24  1  0
 23 48  1  6
 24 25  2  0
M  END
>  <i_m_ct_stereo_status>  (193) 
1

>  <s_m_source_file>  (193) 
/var/tmp/pbs.5076255.sched01/tmpbrsd6n1o/39u_ie0p0h.sdf

>  <i_m_source_file_index>  (193) 
36

>  <i_lp_mmshare_version>  (193) 
48012

>  <i_f3d_flags>  (193) 
0

>  <s_epik_input>  (193) 
W09IXVtDQEBIXTFbQ0gyXUMoPVtDSDJdKUMoPU8pW0NAQEhdMltDQEhdMU9jKGMzW0NAQF0yNDUpYyhPW0NIM10pW2NIXVtjSF1jM1tDSDJdW0NASF01TihbQ0gzXSlbQ0gyXVtDSDJdNA==

>  <s_epik_cmdline>  (193) 
J2VwaWtfcHl0aG9uJywgJy1waHQnLCAnMi4wJywgJy1waCcsICc3LjAnLCAnLXRuJywgJzgnLCAnLW1hJywgJzIwMCcsICctaW1hZScsICc8aW5maWxlLm1hZT4nLCAnLW9tYWUnLCAnPG91dGZpbGUubWFlPic=

>  <r_lp_tautomer_probability>  (193) 
1

>  <r_epik_Ionization_Penalty>  (193) 
2.10713

>  <r_epik_Ionization_Penalty_Charging>  (193) 
0

>  <r_epik_Ionization_Penalty_Neutral>  (193) 
2.10713

>  <r_epik_State_Penalty>  (193) 
2.24375

>  <r_epik_Charging_Adjusted_Penalty>  (193) 
2.24375

>  <i_epik_Tot_Q>  (193) 
0

>  <i_epik_Tot_abs_Q>  (193) 
0

>  <s_lp_Force_Field>  (193) 
OPLS3e

>  <r_lp_Energy>  (193) 
73.3324

>  <b_lp_Chiralities_Consistent>  (193) 
1

>  <s_lp_Variant>  (193) 
58:0-2

>  <s_i_glide_gridfile>  (193) 
pfpi4k_grid

>  <i_i_glide_lignum>  (193) 
36

>  <i_i_glide_rotatable_bonds>  (193) 
2

>  <r_i_docking_score>  (193) 
-4.10417

>  <r_i_glide_ligand_efficiency>  (193) 
-0.164167

>  <r_i_glide_ligand_efficiency_sa>  (193) 
-0.480027

>  <r_i_glide_ligand_efficiency_ln>  (193) 
-0.972812

>  <r_i_glide_gscore>  (193) 
-4.10417

>  <r_i_glide_lipo>  (193) 
-0.7484

>  <r_i_glide_hbond>  (193) 
-0.0704994

>  <r_i_glide_metal>  (193) 
-0

>  <r_i_glide_rewards>  (193) 
-1.18268

>  <r_i_glide_evdw>  (193) 
-17.0047

>  <r_i_glide_ecoul>  (193) 
-8.34904

>  <r_i_glide_erotb>  (193) 
0

>  <r_i_glide_esite>  (193) 
0

>  <r_i_glide_emodel>  (193) 
-30.3368

>  <r_i_glide_energy>  (193) 
-25.3537

>  <r_i_glide_einternal>  (193) 
0.0980271

>  <r_i_glide_intrahb_reward>  (193) 
-0

>  <i_i_glide_confnum>  (193) 
1

>  <i_i_glide_posenum>  (193) 
17

>  <r_i_glide_eff_state_penalty>  (193) 
0

>  <ligand_id>  (193) 
58

>  <original_smiles>  (193) 
C=C1CC(O)C2Oc3c(OC)ccc4c3C3(CCN(C)C3C4)C2C1=O

>  <smiles>  (193) 
[H]OC1([H])C([H])([H])C(=C([H])[H])C(=O)C2([H])C1([H])Oc1c(OC([H])([H])[H])c([H])c([H])c3c1C21C([H])([H])C([H])([H])N(C([H])([H])[H])C1([H])C3([H])[H]

$$$$
58:1:1
     RDKit          3D

 48 52  0  0  1  0  0  0  0  0999 V2000
    4.3644   -0.9039   -3.1086 C   0  0  0  0  0  0  0  0  0  0  0  0
    4.1614   -2.1322   -2.6353 C   0  0  0  0  0  0  0  0  0  0  0  0
    2.8351   -2.8249   -2.7066 C   0  0  0  0  0  0  0  0  0  0  0  0
    2.3945   -3.2577   -1.3160 C   0  0  1  0  0  0  0  0  0  0  0  0
    1.2158   -4.0368   -1.5240 O   0  0  0  0  0  0  0  0  0  0  0  0
    3.4485   -4.1046   -0.5996 C   0  0  2  0  0  0  0  0  0  0  0  0
    2.9476   -4.3037    0.7529 O   0  0  0  0  0  0  0  0  0  0  0  0
    3.9121   -4.7873    1.6077 C   0  0  0  0  0  0  0  0  0  0  0  0
    3.8046   -5.9686    2.3827 C   0  0  0  0  0  0  0  0  0  0  0  0
    2.5680   -6.5701    2.4318 O   0  0  0  0  0  0  0  0  0  0  0  0
    2.4478   -7.8387    3.0690 C   0  0  0  0  0  0  0  0  0  0  0  0
    4.9860   -6.5206    3.0024 C   0  0  0  0  0  0  0  0  0  0  0  0
    6.2701   -5.9560    2.7934 C   0  0  0  0  0  0  0  0  0  0  0  0
    6.3616   -4.7837    2.0344 C   0  0  0  0  0  0  0  0  0  0  0  0
    5.1679   -4.2068    1.5639 C   0  0  0  0  0  0  0  0  0  0  0  0
    5.3887   -3.0362    0.6475 C   0  0  1  0  0  0  0  0  0  0  0  0
    4.8602   -1.6123    0.8516 C   0  0  0  0  0  0  0  0  0  0  0  0
    6.0684   -0.7400    0.3875 C   0  0  0  0  0  0  0  0  0  0  0  0
    7.2314   -1.6371    0.1818 N   0  0  0  0  0  0  0  0  0  0  0  0
    8.5011   -1.0703    0.6185 C   0  0  0  0  0  0  0  0  0  0  0  0
    6.8105   -2.7259    1.0263 C   0  0  2  0  0  0  0  0  0  0  0  0
    7.5042   -4.0404    1.3521 C   0  0  0  0  0  0  0  0  0  0  0  0
    4.9412   -3.6407   -0.6958 C   0  0  2  0  0  0  0  0  0  0  0  0
    5.2510   -2.8776   -1.9738 C   0  0  0  0  0  0  0  0  0  0  0  0
    6.4011   -2.9239   -2.3980 O   0  0  0  0  0  0  0  0  0  0  0  0
    5.3336   -0.4792   -2.9623 H   0  0  0  0  0  0  0  0  0  0  0  0
    3.5984   -0.3134   -3.5948 H   0  0  0  0  0  0  0  0  0  0  0  0
    2.0951   -2.1541   -3.1406 H   0  0  0  0  0  0  0  0  0  0  0  0
    2.9382   -3.6896   -3.3613 H   0  0  0  0  0  0  0  0  0  0  0  0
    2.2110   -2.4021   -0.6723 H   0  0  0  0  0  0  0  0  0  0  0  0
    1.0429   -4.1149   -2.4600 H   0  0  0  0  0  0  0  0  0  0  0  0
    3.5157   -5.0489   -1.0711 H   0  0  0  0  0  0  0  0  0  0  0  0
    1.4092   -8.1603    3.0305 H   0  0  0  0  0  0  0  0  0  0  0  0
    2.7303   -7.7949    4.1212 H   0  0  0  0  0  0  0  0  0  0  0  0
    3.0412   -8.6030    2.5655 H   0  0  0  0  0  0  0  0  0  0  0  0
    4.9333   -7.4436    3.5580 H   0  0  0  0  0  0  0  0  0  0  0  0
    7.1758   -6.4493    3.1494 H   0  0  0  0  0  0  0  0  0  0  0  0
    3.9651   -1.3685    0.2804 H   0  0  0  0  0  0  0  0  0  0  0  0
    4.6582   -1.4130    1.9035 H   0  0  0  0  0  0  0  0  0  0  0  0
    5.8633   -0.2508   -0.5587 H   0  0  0  0  0  0  0  0  0  0  0  0
    6.2114    0.0518    1.1264 H   0  0  0  0  0  0  0  0  0  0  0  0
    9.3369   -1.7709    0.5736 H   0  0  0  0  0  0  0  0  0  0  0  0
    8.4123   -0.7120    1.6284 H   0  0  0  0  0  0  0  0  0  0  0  0
    8.7865   -0.1870    0.0821 H   0  0  0  0  0  0  0  0  0  0  0  0
    6.7452   -2.2709    2.0218 H   0  0  0  0  0  0  0  0  0  0  0  0
    8.3729   -3.9352    1.9994 H   0  0  0  0  0  0  0  0  0  0  0  0
    7.8031   -4.5631    0.4437 H   0  0  0  0  0  0  0  0  0  0  0  0
    5.5375   -4.5513   -0.8041 H   0  0  0  0  0  0  0  0  0  0  0  0
  1  2  2  0
  1 26  1  0
  1 27  1  0
  2 24  1  0
  2  3  1  0
  3  4  1  0
  3 28  1  0
  3 29  1  0
  4  5  1  0
  4  6  1  0
  4 30  1  1
  5 31  1  0
  6 23  1  0
  6  7  1  0
  6 32  1  6
  7  8  1  0
  8 15  2  0
  8  9  1  0
  9 10  1  0
  9 12  2  0
 10 11  1  0
 11 33  1  0
 11 34  1  0
 11 35  1  0
 12 13  1  0
 12 36  1  0
 13 14  2  0
 13 37  1  0
 14 22  1  0
 14 15  1  0
 15 16  1  0
 16 21  1  0
 16 17  1  1
 16 23  1  0
 17 18  1  0
 17 38  1  0
 17 39  1  0
 18 19  1  0
 18 40  1  0
 18 41  1  0
 19 20  1  0
 19 21  1  0
 20 42  1  0
 20 43  1  0
 20 44  1  0
 21 22  1  0
 21 45  1  1
 22 46  1  0
 22 47  1  0
 23 24  1  0
 23 48  1  6
 24 25  2  0
M  END
>  <i_m_ct_stereo_status>  (194) 
1

>  <s_m_source_file>  (194) 
/var/tmp/pbs.5076255.sched01/tmpbrsd6n1o/39u_ie0p0h.sdf

>  <i_m_source_file_index>  (194) 
36

>  <i_lp_mmshare_version>  (194) 
48012

>  <i_f3d_flags>  (194) 
0

>  <s_epik_input>  (194) 
W09IXVtDQEBIXTFbQ0gyXUMoPVtDSDJdKUMoPU8pW0NAQEhdMltDQEhdMU9jKGMzW0NAQF0yNDUpYyhPW0NIM10pW2NIXVtjSF1jM1tDSDJdW0NASF01TihbQ0gzXSlbQ0gyXVtDSDJdNA==

>  <s_epik_cmdline>  (194) 
J2VwaWtfcHl0aG9uJywgJy1waHQnLCAnMi4wJywgJy1waCcsICc3LjAnLCAnLXRuJywgJzgnLCAnLW1hJywgJzIwMCcsICctaW1hZScsICc8aW5maWxlLm1hZT4nLCAnLW9tYWUnLCAnPG91dGZpbGUubWFlPic=

>  <r_lp_tautomer_probability>  (194) 
1

>  <r_epik_Ionization_Penalty>  (194) 
2.10713

>  <r_epik_Ionization_Penalty_Charging>  (194) 
0

>  <r_epik_Ionization_Penalty_Neutral>  (194) 
2.10713

>  <r_epik_State_Penalty>  (194) 
2.24375

>  <r_epik_Charging_Adjusted_Penalty>  (194) 
2.24375

>  <i_epik_Tot_Q>  (194) 
0

>  <i_epik_Tot_abs_Q>  (194) 
0

>  <s_lp_Force_Field>  (194) 
OPLS3e

>  <r_lp_Energy>  (194) 
73.3324

>  <b_lp_Chiralities_Consistent>  (194) 
1

>  <s_lp_Variant>  (194) 
58:0-2

>  <s_i_glide_gridfile>  (194) 
pfpi4k_grid

>  <i_i_glide_lignum>  (194) 
36

>  <i_i_glide_rotatable_bonds>  (194) 
2

>  <r_i_docking_score>  (194) 
-3.80583

>  <r_i_glide_ligand_efficiency>  (194) 
-0.152233

>  <r_i_glide_ligand_efficiency_sa>  (194) 
-0.445133

>  <r_i_glide_ligand_efficiency_ln>  (194) 
-0.902097

>  <r_i_glide_gscore>  (194) 
-3.80583

>  <r_i_glide_lipo>  (194) 
-0.697263

>  <r_i_glide_hbond>  (194) 
-0.0686328

>  <r_i_glide_metal>  (194) 
-0

>  <r_i_glide_rewards>  (194) 
-1.18593

>  <r_i_glide_evdw>  (194) 
-14.812

>  <r_i_glide_ecoul>  (194) 
-7.4227

>  <r_i_glide_erotb>  (194) 
0

>  <r_i_glide_esite>  (194) 
0

>  <r_i_glide_emodel>  (194) 
-25.8932

>  <r_i_glide_energy>  (194) 
-22.2347

>  <r_i_glide_einternal>  (194) 
1.3929

>  <r_i_glide_intrahb_reward>  (194) 
-0

>  <i_i_glide_confnum>  (194) 
1

>  <i_i_glide_posenum>  (194) 
32

>  <r_i_glide_eff_state_penalty>  (194) 
0

>  <ligand_id>  (194) 
58

>  <original_smiles>  (194) 
C=C1CC(O)C2Oc3c(OC)ccc4c3C3(CCN(C)C3C4)C2C1=O

>  <smiles>  (194) 
[H]OC1([H])C([H])([H])C(=C([H])[H])C(=O)C2([H])C1([H])Oc1c(OC([H])([H])[H])c([H])c([H])c3c1C21C([H])([H])C([H])([H])N(C([H])([H])[H])C1([H])C3([H])[H]

$$$$
58:1:2
     RDKit          3D

 48 52  0  0  1  0  0  0  0  0999 V2000
    4.3137   -1.7217   -3.6514 C   0  0  0  0  0  0  0  0  0  0  0  0
    3.8920   -2.7922   -2.9654 C   0  0  0  0  0  0  0  0  0  0  0  0
    2.4866   -3.2964   -2.9536 C   0  0  0  0  0  0  0  0  0  0  0  0
    2.0345   -3.4517   -1.5049 C   0  0  1  0  0  0  0  0  0  0  0  0
    0.7390   -4.0009   -1.5304 O   0  0  0  0  0  0  0  0  0  0  0  0
    2.8867   -4.3191   -0.5919 C   0  0  2  0  0  0  0  0  0  0  0  0
    2.3778   -4.0990    0.7436 O   0  0  0  0  0  0  0  0  0  0  0  0
    3.2232   -4.5727    1.6805 C   0  0  0  0  0  0  0  0  0  0  0  0
    2.9295   -5.5874    2.6444 C   0  0  0  0  0  0  0  0  0  0  0  0
    1.6087   -5.9695    2.7486 O   0  0  0  0  0  0  0  0  0  0  0  0
    1.2875   -7.0859    3.5740 C   0  0  0  0  0  0  0  0  0  0  0  0
    3.9998   -6.1896    3.3828 C   0  0  0  0  0  0  0  0  0  0  0  0
    5.3559   -5.8600    3.1230 C   0  0  0  0  0  0  0  0  0  0  0  0
    5.6456   -4.8512    2.1883 C   0  0  0  0  0  0  0  0  0  0  0  0
    4.5680   -4.2097    1.5915 C   0  0  0  0  0  0  0  0  0  0  0  0
    4.9662   -3.2718    0.4657 C   0  0  1  0  0  0  0  0  0  0  0  0
    4.6736   -1.7690    0.4014 C   0  0  0  0  0  0  0  0  0  0  0  0
    6.0082   -1.1715   -0.1594 C   0  0  0  0  0  0  0  0  0  0  0  0
    7.0273   -2.2394   -0.1408 N   0  0  0  0  0  0  0  0  0  0  0  0
    8.3470   -1.7702    0.2871 C   0  0  0  0  0  0  0  0  0  0  0  0
    6.4240   -3.1115    0.8477 C   0  0  2  0  0  0  0  0  0  0  0  0
    6.8948   -4.4265    1.4287 C   0  0  0  0  0  0  0  0  0  0  0  0
    4.4387   -4.0641   -0.7633 C   0  0  2  0  0  0  0  0  0  0  0  0
    4.8590   -3.5488   -2.1550 C   0  0  0  0  0  0  0  0  0  0  0  0
    5.9885   -3.7671   -2.5574 O   0  0  0  0  0  0  0  0  0  0  0  0
    5.3499   -1.4651   -3.5780 H   0  0  0  0  0  0  0  0  0  0  0  0
    3.6561   -1.1167   -4.2515 H   0  0  0  0  0  0  0  0  0  0  0  0
    1.8527   -2.5892   -3.5013 H   0  0  0  0  0  0  0  0  0  0  0  0
    2.4399   -4.2414   -3.4954 H   0  0  0  0  0  0  0  0  0  0  0  0
    2.1308   -2.4881   -1.0365 H   0  0  0  0  0  0  0  0  0  0  0  0
    0.4895   -4.1906   -2.4251 H   0  0  0  0  0  0  0  0  0  0  0  0
    2.6584   -5.3762   -0.6680 H   0  0  0  0  0  0  0  0  0  0  0  0
    0.2091   -7.2441    3.5613 H   0  0  0  0  0  0  0  0  0  0  0  0
    1.5760   -6.9220    4.6130 H   0  0  0  0  0  0  0  0  0  0  0  0
    1.7515   -8.0031    3.2096 H   0  0  0  0  0  0  0  0  0  0  0  0
    3.8042   -6.9761    4.0887 H   0  0  0  0  0  0  0  0  0  0  0  0
    6.1611   -6.4188    3.5864 H   0  0  0  0  0  0  0  0  0  0  0  0
    3.8231   -1.5029   -0.2220 H   0  0  0  0  0  0  0  0  0  0  0  0
    4.4817   -1.3638    1.3946 H   0  0  0  0  0  0  0  0  0  0  0  0
    5.8780   -0.8224   -1.1823 H   0  0  0  0  0  0  0  0  0  0  0  0
    6.3085   -0.3103    0.4405 H   0  0  0  0  0  0  0  0  0  0  0  0
    9.0451   -2.6020    0.3640 H   0  0  0  0  0  0  0  0  0  0  0  0
    8.3059   -1.2305    1.2312 H   0  0  0  0  0  0  0  0  0  0  0  0
    8.7924   -1.0848   -0.4217 H   0  0  0  0  0  0  0  0  0  0  0  0
    6.4378   -2.4938    1.7508 H   0  0  0  0  0  0  0  0  0  0  0  0
    7.7653   -4.3205    2.0872 H   0  0  0  0  0  0  0  0  0  0  0  0
    7.1187   -5.1557    0.6467 H   0  0  0  0  0  0  0  0  0  0  0  0
    4.8974   -5.0526   -0.7022 H   0  0  0  0  0  0  0  0  0  0  0  0
  1  2  2  0
  1 26  1  0
  1 27  1  0
  2 24  1  0
  2  3  1  0
  3  4  1  0
  3 28  1  0
  3 29  1  0
  4  5  1  0
  4  6  1  0
  4 30  1  1
  5 31  1  0
  6 23  1  0
  6  7  1  0
  6 32  1  6
  7  8  1  0
  8 15  2  0
  8  9  1  0
  9 10  1  0
  9 12  2  0
 10 11  1  0
 11 33  1  0
 11 34  1  0
 11 35  1  0
 12 13  1  0
 12 36  1  0
 13 14  2  0
 13 37  1  0
 14 22  1  0
 14 15  1  0
 15 16  1  0
 16 21  1  0
 16 17  1  1
 16 23  1  0
 17 18  1  0
 17 38  1  0
 17 39  1  0
 18 19  1  0
 18 40  1  0
 18 41  1  0
 19 20  1  0
 19 21  1  0
 20 42  1  0
 20 43  1  0
 20 44  1  0
 21 22  1  0
 21 45  1  1
 22 46  1  0
 22 47  1  0
 23 24  1  0
 23 48  1  1
 24 25  2  0
M  END
>  <i_m_ct_stereo_status>  (195) 
1

>  <s_m_source_file>  (195) 
/var/tmp/pbs.5076255.sched01/tmpbrsd6n1o/39u_ie0p0h.sdf

>  <i_m_source_file_index>  (195) 
36

>  <i_lp_mmshare_version>  (195) 
48012

>  <i_f3d_flags>  (195) 
0

>  <s_epik_input>  (195) 
W09IXVtDQEBIXTFbQ0gyXUMoPVtDSDJdKUMoPU8pW0NAQEhdMltDQEhdMU9jKGMzW0NAQF0yNDUpYyhPW0NIM10pW2NIXVtjSF1jM1tDSDJdW0NASF01TihbQ0gzXSlbQ0gyXVtDSDJdNA==

>  <s_epik_cmdline>  (195) 
J2VwaWtfcHl0aG9uJywgJy1waHQnLCAnMi4wJywgJy1waCcsICc3LjAnLCAnLXRuJywgJzgnLCAnLW1hJywgJzIwMCcsICctaW1hZScsICc8aW5maWxlLm1hZT4nLCAnLW9tYWUnLCAnPG91dGZpbGUubWFlPic=

>  <r_lp_tautomer_probability>  (195) 
1

>  <r_epik_Ionization_Penalty>  (195) 
2.10713

>  <r_epik_Ionization_Penalty_Charging>  (195) 
0

>  <r_epik_Ionization_Penalty_Neutral>  (195) 
2.10713

>  <r_epik_State_Penalty>  (195) 
2.24375

>  <r_epik_Charging_Adjusted_Penalty>  (195) 
2.24375

>  <i_epik_Tot_Q>  (195) 
0

>  <i_epik_Tot_abs_Q>  (195) 
0

>  <s_lp_Force_Field>  (195) 
OPLS3e

>  <r_lp_Energy>  (195) 
73.3324

>  <b_lp_Chiralities_Consistent>  (195) 
1

>  <s_lp_Variant>  (195) 
58:0-2

>  <s_i_glide_gridfile>  (195) 
pfpi4k_grid

>  <i_i_glide_lignum>  (195) 
36

>  <i_i_glide_rotatable_bonds>  (195) 
2

>  <r_i_docking_score>  (195) 
-3.75144

>  <r_i_glide_ligand_efficiency>  (195) 
-0.150058

>  <r_i_glide_ligand_efficiency_sa>  (195) 
-0.438771

>  <r_i_glide_ligand_efficiency_ln>  (195) 
-0.889203

>  <r_i_glide_gscore>  (195) 
-3.75144

>  <r_i_glide_lipo>  (195) 
-0.719609

>  <r_i_glide_hbond>  (195) 
-0.030418

>  <r_i_glide_metal>  (195) 
-0

>  <r_i_glide_rewards>  (195) 
-1.13651

>  <r_i_glide_evdw>  (195) 
-9.76789

>  <r_i_glide_ecoul>  (195) 
-9.17671

>  <r_i_glide_erotb>  (195) 
0

>  <r_i_glide_esite>  (195) 
0

>  <r_i_glide_emodel>  (195) 
-22.6275

>  <r_i_glide_energy>  (195) 
-18.9446

>  <r_i_glide_einternal>  (195) 
1.40849

>  <r_i_glide_intrahb_reward>  (195) 
-0

>  <i_i_glide_confnum>  (195) 
2

>  <i_i_glide_posenum>  (195) 
40

>  <r_i_glide_eff_state_penalty>  (195) 
0

>  <ligand_id>  (195) 
58

>  <original_smiles>  (195) 
C=C1CC(O)C2Oc3c(OC)ccc4c3C3(CCN(C)C3C4)C2C1=O

>  <smiles>  (195) 
[H]OC1([H])C([H])([H])C(=C([H])[H])C(=O)C2([H])C1([H])Oc1c(OC([H])([H])[H])c([H])c([H])c3c1C21C([H])([H])C([H])([H])N(C([H])([H])[H])C1([H])C3([H])[H]

$$$$
59:0:0
     RDKit          3D

 42 46  0  0  1  0  0  0  0  0999 V2000
    0.4438    2.8760    4.6326 O   0  0  0  0  0  0  0  0  0  0  0  0
    0.8831    1.8820    4.0571 C   0  0  0  0  0  0  0  0  0  0  0  0
    0.2818    1.3806    2.7493 C   0  0  0  0  0  0  0  0  0  0  0  0
    1.3788    0.9866    1.7482 C   0  0  0  0  0  0  0  0  0  0  0  0
    2.4576    0.0390    2.3091 C   0  0  1  0  0  0  0  0  0  0  0  0
    3.0733    0.6614    3.5847 C   0  0  0  0  0  0  0  0  0  0  0  0
    2.0199    1.0463    4.6479 C   0  0  0  0  0  0  0  0  0  0  0  0
    1.9099   -1.2185    2.6246 O   0  0  0  0  0  0  0  0  0  0  0  0
    3.0810   -2.1320    2.4524 O   0  0  0  0  0  0  0  0  0  0  0  0
    3.7958   -1.5602    1.3741 C   0  0  1  0  0  0  0  0  0  0  0  0
    3.4640   -0.1704    1.3257 O   0  0  0  0  0  0  0  0  0  0  0  0
    5.3227   -1.7087    1.5792 C   0  0  2  0  0  0  0  0  0  0  0  0
    6.0736   -1.0960    0.3713 C   0  0  0  0  0  0  0  0  0  0  0  0
    5.6762   -1.8460   -0.9229 C   0  0  1  0  0  0  0  0  0  0  0  0
    6.0668   -3.3293   -0.7991 C   0  0  0  0  0  0  0  0  0  0  0  0
    5.3143   -3.9457    0.3944 C   0  0  1  0  0  0  0  0  0  0  0  0
    5.7044   -3.2051    1.6932 C   0  0  0  0  0  0  0  0  0  0  0  0
    3.7919   -3.8158    0.1725 C   0  0  0  0  0  0  0  0  0  0  0  0
    3.4112   -2.3146    0.0683 C   0  0  2  0  0  0  0  0  0  0  0  0
    4.1537   -1.7050   -1.1408 C   0  0  0  0  0  0  0  0  0  0  0  0
   -0.3503    0.5247    2.9740 H   0  0  0  0  0  0  0  0  0  0  0  0
   -0.3613    2.1547    2.3248 H   0  0  0  0  0  0  0  0  0  0  0  0
    0.8985    0.5415    0.8828 H   0  0  0  0  0  0  0  0  0  0  0  0
    1.8492    1.8976    1.3849 H   0  0  0  0  0  0  0  0  0  0  0  0
    3.7962   -0.0204    4.0283 H   0  0  0  0  0  0  0  0  0  0  0  0
    3.6294    1.5567    3.3148 H   0  0  0  0  0  0  0  0  0  0  0  0
    2.4799    1.6044    5.4656 H   0  0  0  0  0  0  0  0  0  0  0  0
    1.5707    0.1503    5.0786 H   0  0  0  0  0  0  0  0  0  0  0  0
    5.6081   -1.1886    2.4929 H   0  0  0  0  0  0  0  0  0  0  0  0
    5.8345   -0.0337    0.2743 H   0  0  0  0  0  0  0  0  0  0  0  0
    7.1499   -1.1696    0.5351 H   0  0  0  0  0  0  0  0  0  0  0  0
    6.1954   -1.4196   -1.7782 H   0  0  0  0  0  0  0  0  0  0  0  0
    5.8281   -3.8660   -1.7171 H   0  0  0  0  0  0  0  0  0  0  0  0
    7.1435   -3.4256   -0.6579 H   0  0  0  0  0  0  0  0  0  0  0  0
    5.5840   -4.9996    0.4781 H   0  0  0  0  0  0  0  0  0  0  0  0
    6.7778   -3.2965    1.8592 H   0  0  0  0  0  0  0  0  0  0  0  0
    5.2091   -3.6678    2.5504 H   0  0  0  0  0  0  0  0  0  0  0  0
    3.5075   -4.3479   -0.7383 H   0  0  0  0  0  0  0  0  0  0  0  0
    3.2606   -4.2984    0.9949 H   0  0  0  0  0  0  0  0  0  0  0  0
    2.3383   -2.2470   -0.0889 H   0  0  0  0  0  0  0  0  0  0  0  0
    3.8871   -0.6549   -1.2523 H   0  0  0  0  0  0  0  0  0  0  0  0
    3.8560   -2.2096   -2.0621 H   0  0  0  0  0  0  0  0  0  0  0  0
  1  2  2  0
  2  7  1  0
  2  3  1  0
  3  4  1  0
  3 21  1  0
  3 22  1  0
  4  5  1  0
  4 23  1  0
  4 24  1  0
  5 11  1  6
  5  6  1  0
  5  8  1  0
  6  7  1  0
  6 25  1  0
  6 26  1  0
  7 27  1  0
  7 28  1  0
  8  9  1  0
 10  9  1  1
 10 19  1  0
 10 11  1  0
 10 12  1  0
 12 17  1  0
 12 13  1  0
 12 29  1  1
 13 14  1  0
 13 30  1  0
 13 31  1  0
 14 20  1  0
 14 15  1  0
 14 32  1  6
 15 16  1  0
 15 33  1  0
 15 34  1  0
 16 17  1  0
 16 18  1  0
 16 35  1  1
 17 36  1  0
 17 37  1  0
 18 19  1  0
 18 38  1  0
 18 39  1  0
 19 20  1  0
 19 40  1  6
 20 41  1  0
 20 42  1  0
M  END
>  <i_m_ct_stereo_status>  (196) 
1

>  <s_m_source_file>  (196) 
/var/tmp/pbs.5076255.sched01/tmpbrsd6n1o/39u_ie0p0h.sdf

>  <i_m_source_file_index>  (196) 
37

>  <i_lp_mmshare_version>  (196) 
48012

>  <i_f3d_flags>  (196) 
0

>  <s_epik_input>  (196) 
W0NIMl0xW0NIMl1DKD1PKVtDSDJdW0NIMl1DMTJPT1tDQEBdMyhPMilbQ0BASF00W0NIMl1bQ0BIXTVbQ0gyXVtDQEBIXShbQ0gyXTQpW0NIMl1bQ0BASF0zW0NIMl01

>  <s_epik_cmdline>  (196) 
J2VwaWtfcHl0aG9uJywgJy1waHQnLCAnMi4wJywgJy1waCcsICc3LjAnLCAnLXRuJywgJzgnLCAnLW1hJywgJzIwMCcsICctaW1hZScsICc8aW5maWxlLm1hZT4nLCAnLW9tYWUnLCAnPG91dGZpbGUubWFlPic=

>  <r_lp_tautomer_probability>  (196) 
1

>  <r_epik_Ionization_Penalty>  (196) 
2.59801e-12

>  <r_epik_Ionization_Penalty_Charging>  (196) 
0

>  <r_epik_Ionization_Penalty_Neutral>  (196) 
2.59801e-12

>  <r_epik_State_Penalty>  (196) 
-0

>  <r_epik_Charging_Adjusted_Penalty>  (196) 
0

>  <i_epik_Tot_Q>  (196) 
0

>  <i_epik_Tot_abs_Q>  (196) 
0

>  <s_lp_Force_Field>  (196) 
OPLS3e

>  <r_lp_Energy>  (196) 
-3.38791

>  <b_lp_Chiralities_Consistent>  (196) 
1

>  <s_lp_Variant>  (196) 
59:0-1

>  <s_i_glide_gridfile>  (196) 
pfpi4k_grid

>  <i_i_glide_lignum>  (196) 
37

>  <i_i_glide_rotatable_bonds>  (196) 
0

>  <r_i_docking_score>  (196) 
-3.19818

>  <r_i_glide_ligand_efficiency>  (196) 
-0.159909

>  <r_i_glide_ligand_efficiency_sa>  (196) 
-0.434059

>  <r_i_glide_ligand_efficiency_ln>  (196) 
-0.800398

>  <r_i_glide_gscore>  (196) 
-3.19818

>  <r_i_glide_lipo>  (196) 
-0.413604

>  <r_i_glide_hbond>  (196) 
0

>  <r_i_glide_metal>  (196) 
-0

>  <r_i_glide_rewards>  (196) 
-1.51129

>  <r_i_glide_evdw>  (196) 
-22.5329

>  <r_i_glide_ecoul>  (196) 
-0.669463

>  <r_i_glide_erotb>  (196) 
0

>  <r_i_glide_esite>  (196) 
-0.0462108

>  <r_i_glide_emodel>  (196) 
-27.852

>  <r_i_glide_energy>  (196) 
-23.2024

>  <r_i_glide_einternal>  (196) 
0

>  <r_i_glide_intrahb_reward>  (196) 
-0

>  <i_i_glide_confnum>  (196) 
2

>  <i_i_glide_posenum>  (196) 
1

>  <r_i_glide_eff_state_penalty>  (196) 
0

>  <ligand_id>  (196) 
59

>  <original_smiles>  (196) 
O=C1CCC2(CC1)OOC1(O2)C2CC3CC(C2)CC1C3

>  <smiles>  (196) 
[H]C1([H])C(=O)C([H])([H])C([H])([H])C2(OOC3(O2)C2([H])C([H])([H])C4([H])C([H])([H])C([H])(C2([H])[H])C([H])([H])C3([H])C4([H])[H])C1([H])[H]

$$$$
59:0:1
     RDKit          3D

 42 46  0  0  1  0  0  0  0  0999 V2000
    3.8042   -5.7274    5.9861 O   0  0  0  0  0  0  0  0  0  0  0  0
    4.1117   -5.4574    4.8268 C   0  0  0  0  0  0  0  0  0  0  0  0
    3.0683   -5.0086    3.7989 C   0  0  0  0  0  0  0  0  0  0  0  0
    3.2546   -5.7195    2.4512 C   0  0  0  0  0  0  0  0  0  0  0  0
    4.6964   -5.5870    1.9170 C   0  0  1  0  0  0  0  0  0  0  0  0
    5.6838   -6.1691    2.9567 C   0  0  0  0  0  0  0  0  0  0  0  0
    5.5664   -5.5092    4.3455 C   0  0  0  0  0  0  0  0  0  0  0  0
    4.7852   -6.3069    0.7220 O   0  0  0  0  0  0  0  0  0  0  0  0
    4.2873   -5.3358   -0.2887 O   0  0  0  0  0  0  0  0  0  0  0  0
    4.6399   -4.0738    0.2345 C   0  0  1  0  0  0  0  0  0  0  0  0
    4.9686   -4.2361    1.6125 O   0  0  0  0  0  0  0  0  0  0  0  0
    5.8751   -3.5617   -0.5367 C   0  0  2  0  0  0  0  0  0  0  0  0
    6.2859   -2.1625   -0.0243 C   0  0  0  0  0  0  0  0  0  0  0  0
    5.1198   -1.1736   -0.2510 C   0  0  1  0  0  0  0  0  0  0  0  0
    4.7991   -1.0753   -1.7553 C   0  0  0  0  0  0  0  0  0  0  0  0
    4.3877   -2.4674   -2.2653 C   0  0  1  0  0  0  0  0  0  0  0  0
    5.5494   -3.4577   -2.0500 C   0  0  0  0  0  0  0  0  0  0  0  0
    3.1433   -2.9509   -1.4946 C   0  0  0  0  0  0  0  0  0  0  0  0
    3.4751   -3.0675    0.0174 C   0  0  2  0  0  0  0  0  0  0  0  0
    3.8794   -1.6638    0.5304 C   0  0  0  0  0  0  0  0  0  0  0  0
    2.0703   -5.1821    4.2006 H   0  0  0  0  0  0  0  0  0  0  0  0
    3.1837   -3.9331    3.6665 H   0  0  0  0  0  0  0  0  0  0  0  0
    3.0104   -6.7771    2.5691 H   0  0  0  0  0  0  0  0  0  0  0  0
    2.5263   -5.3338    1.7424 H   0  0  0  0  0  0  0  0  0  0  0  0
    5.4742   -7.2395    3.0742 H   0  0  0  0  0  0  0  0  0  0  0  0
    6.7129   -6.1052    2.6015 H   0  0  0  0  0  0  0  0  0  0  0  0
    5.9474   -4.4909    4.3066 H   0  0  0  0  0  0  0  0  0  0  0  0
    6.1659   -6.0469    5.0812 H   0  0  0  0  0  0  0  0  0  0  0  0
    6.7006   -4.2539   -0.3926 H   0  0  0  0  0  0  0  0  0  0  0  0
    6.5350   -2.1994    1.0379 H   0  0  0  0  0  0  0  0  0  0  0  0
    7.1790   -1.8295   -0.5502 H   0  0  0  0  0  0  0  0  0  0  0  0
    5.4017   -0.1888    0.1155 H   0  0  0  0  0  0  0  0  0  0  0  0
    4.0042   -0.3543   -1.9423 H   0  0  0  0  0  0  0  0  0  0  0  0
    5.6664   -0.7182   -2.3082 H   0  0  0  0  0  0  0  0  0  0  0  0
    4.1470   -2.4012   -3.3248 H   0  0  0  0  0  0  0  0  0  0  0  0
    6.4294   -3.1450   -2.6109 H   0  0  0  0  0  0  0  0  0  0  0  0
    5.2621   -4.4333   -2.4516 H   0  0  0  0  0  0  0  0  0  0  0  0
    2.3233   -2.2528   -1.6572 H   0  0  0  0  0  0  0  0  0  0  0  0
    2.8026   -3.9004   -1.8991 H   0  0  0  0  0  0  0  0  0  0  0  0
    2.5802   -3.3924    0.5442 H   0  0  0  0  0  0  0  0  0  0  0  0
    4.1028   -1.6991    1.5987 H   0  0  0  0  0  0  0  0  0  0  0  0
    3.0512   -0.9611    0.3954 H   0  0  0  0  0  0  0  0  0  0  0  0
  1  2  2  0
  2  7  1  0
  2  3  1  0
  3  4  1  0
  3 21  1  0
  3 22  1  0
  4  5  1  0
  4 23  1  0
  4 24  1  0
  5 11  1  6
  5  6  1  0
  5  8  1  0
  6  7  1  0
  6 25  1  0
  6 26  1  0
  7 27  1  0
  7 28  1  0
  8  9  1  0
 10  9  1  6
 10 19  1  0
 10 11  1  0
 10 12  1  0
 12 17  1  0
 12 13  1  0
 12 29  1  6
 13 14  1  0
 13 30  1  0
 13 31  1  0
 14 20  1  0
 14 15  1  0
 14 32  1  1
 15 16  1  0
 15 33  1  0
 15 34  1  0
 16 17  1  0
 16 18  1  0
 16 35  1  6
 17 36  1  0
 17 37  1  0
 18 19  1  0
 18 38  1  0
 18 39  1  0
 19 20  1  0
 19 40  1  1
 20 41  1  0
 20 42  1  0
M  END
>  <i_m_ct_stereo_status>  (197) 
1

>  <s_m_source_file>  (197) 
/var/tmp/pbs.5076255.sched01/tmpbrsd6n1o/39u_ie0p0h.sdf

>  <i_m_source_file_index>  (197) 
37

>  <i_lp_mmshare_version>  (197) 
48012

>  <i_f3d_flags>  (197) 
0

>  <s_epik_input>  (197) 
W0NIMl0xW0NIMl1DKD1PKVtDSDJdW0NIMl1DMTJPT1tDQEBdMyhPMilbQ0BASF00W0NIMl1bQ0BIXTVbQ0gyXVtDQEBIXShbQ0gyXTQpW0NIMl1bQ0BASF0zW0NIMl01

>  <s_epik_cmdline>  (197) 
J2VwaWtfcHl0aG9uJywgJy1waHQnLCAnMi4wJywgJy1waCcsICc3LjAnLCAnLXRuJywgJzgnLCAnLW1hJywgJzIwMCcsICctaW1hZScsICc8aW5maWxlLm1hZT4nLCAnLW9tYWUnLCAnPG91dGZpbGUubWFlPic=

>  <r_lp_tautomer_probability>  (197) 
1

>  <r_epik_Ionization_Penalty>  (197) 
2.59801e-12

>  <r_epik_Ionization_Penalty_Charging>  (197) 
0

>  <r_epik_Ionization_Penalty_Neutral>  (197) 
2.59801e-12

>  <r_epik_State_Penalty>  (197) 
-0

>  <r_epik_Charging_Adjusted_Penalty>  (197) 
0

>  <i_epik_Tot_Q>  (197) 
0

>  <i_epik_Tot_abs_Q>  (197) 
0

>  <s_lp_Force_Field>  (197) 
OPLS3e

>  <r_lp_Energy>  (197) 
-3.38791

>  <b_lp_Chiralities_Consistent>  (197) 
1

>  <s_lp_Variant>  (197) 
59:0-1

>  <s_i_glide_gridfile>  (197) 
pfpi4k_grid

>  <i_i_glide_lignum>  (197) 
37

>  <i_i_glide_rotatable_bonds>  (197) 
0

>  <r_i_docking_score>  (197) 
-2.91498

>  <r_i_glide_ligand_efficiency>  (197) 
-0.145749

>  <r_i_glide_ligand_efficiency_sa>  (197) 
-0.395623

>  <r_i_glide_ligand_efficiency_ln>  (197) 
-0.729522

>  <r_i_glide_gscore>  (197) 
-2.91498

>  <r_i_glide_lipo>  (197) 
-0.285187

>  <r_i_glide_hbond>  (197) 
0

>  <r_i_glide_metal>  (197) 
-0

>  <r_i_glide_rewards>  (197) 
-1.58535

>  <r_i_glide_evdw>  (197) 
-20.7793

>  <r_i_glide_ecoul>  (197) 
-0.036489

>  <r_i_glide_erotb>  (197) 
0

>  <r_i_glide_esite>  (197) 
0

>  <r_i_glide_emodel>  (197) 
-25.0307

>  <r_i_glide_energy>  (197) 
-20.8158

>  <r_i_glide_einternal>  (197) 
0

>  <r_i_glide_intrahb_reward>  (197) 
-0

>  <i_i_glide_confnum>  (197) 
3

>  <i_i_glide_posenum>  (197) 
2

>  <r_i_glide_eff_state_penalty>  (197) 
0

>  <ligand_id>  (197) 
59

>  <original_smiles>  (197) 
O=C1CCC2(CC1)OOC1(O2)C2CC3CC(C2)CC1C3

>  <smiles>  (197) 
[H]C1([H])C(=O)C([H])([H])C([H])([H])C2(OOC3(O2)C2([H])C([H])([H])C4([H])C([H])([H])C([H])(C2([H])[H])C([H])([H])C3([H])C4([H])[H])C1([H])[H]

$$$$
59:0:2
     RDKit          3D

 42 46  0  0  1  0  0  0  0  0999 V2000
    3.4496   -9.4270    2.3298 O   0  0  0  0  0  0  0  0  0  0  0  0
    3.8206   -8.3191    1.9442 C   0  0  0  0  0  0  0  0  0  0  0  0
    4.9622   -8.1541    0.9403 C   0  0  0  0  0  0  0  0  0  0  0  0
    5.9369   -7.0303    1.3621 C   0  0  0  0  0  0  0  0  0  0  0  0
    5.2035   -5.7076    1.6657 C   0  0  1  0  0  0  0  0  0  0  0  0
    4.1629   -5.9429    2.7805 C   0  0  0  0  0  0  0  0  0  0  0  0
    3.1363   -7.0356    2.4195 C   0  0  0  0  0  0  0  0  0  0  0  0
    6.1128   -4.7260    2.0981 O   0  0  0  0  0  0  0  0  0  0  0  0
    5.4475   -3.4594    1.6718 O   0  0  0  0  0  0  0  0  0  0  0  0
    4.7967   -3.8155    0.4670 C   0  0  1  0  0  0  0  0  0  0  0  0
    4.5826   -5.2285    0.4833 O   0  0  0  0  0  0  0  0  0  0  0  0
    3.4281   -3.1082    0.3477 C   0  0  2  0  0  0  0  0  0  0  0  0
    2.7575   -3.5020   -0.9897 C   0  0  0  0  0  0  0  0  0  0  0  0
    3.6480   -3.0669   -2.1750 C   0  0  1  0  0  0  0  0  0  0  0  0
    3.8236   -1.5386   -2.1503 C   0  0  0  0  0  0  0  0  0  0  0  0
    4.5001   -1.1488   -0.8211 C   0  0  1  0  0  0  0  0  0  0  0  0
    3.6205   -1.5770    0.3734 C   0  0  0  0  0  0  0  0  0  0  0  0
    5.8750   -1.8442   -0.7131 C   0  0  0  0  0  0  0  0  0  0  0  0
    5.6913   -3.3811   -0.7262 C   0  0  2  0  0  0  0  0  0  0  0  0
    5.0213   -3.7681   -2.0604 C   0  0  0  0  0  0  0  0  0  0  0  0
    5.4789   -9.1080    0.8227 H   0  0  0  0  0  0  0  0  0  0  0  0
    4.5199   -7.9137   -0.0241 H   0  0  0  0  0  0  0  0  0  0  0  0
    6.4905   -7.3593    2.2410 H   0  0  0  0  0  0  0  0  0  0  0  0
    6.6862   -6.8640    0.5897 H   0  0  0  0  0  0  0  0  0  0  0  0
    4.6842   -6.2510    3.6874 H   0  0  0  0  0  0  0  0  0  0  0  0
    3.6393   -5.0186    3.0279 H   0  0  0  0  0  0  0  0  0  0  0  0
    2.4802   -6.6857    1.6223 H   0  0  0  0  0  0  0  0  0  0  0  0
    2.5057   -7.2688    3.2803 H   0  0  0  0  0  0  0  0  0  0  0  0
    2.7915   -3.4085    1.1798 H   0  0  0  0  0  0  0  0  0  0  0  0
    2.6009   -4.5823   -1.0263 H   0  0  0  0  0  0  0  0  0  0  0  0
    1.7761   -3.0390   -1.0777 H   0  0  0  0  0  0  0  0  0  0  0  0
    3.1722   -3.3574   -3.1106 H   0  0  0  0  0  0  0  0  0  0  0  0
    4.4181   -1.1996   -2.9994 H   0  0  0  0  0  0  0  0  0  0  0  0
    2.8536   -1.0494   -2.2423 H   0  0  0  0  0  0  0  0  0  0  0  0
    4.6176   -0.0681   -0.8009 H   0  0  0  0  0  0  0  0  0  0  0  0
    2.6483   -1.0863    0.3177 H   0  0  0  0  0  0  0  0  0  0  0  0
    4.0776   -1.2513    1.3099 H   0  0  0  0  0  0  0  0  0  0  0  0
    6.4981   -1.5456   -1.5557 H   0  0  0  0  0  0  0  0  0  0  0  0
    6.3806   -1.5147    0.1966 H   0  0  0  0  0  0  0  0  0  0  0  0
    6.6686   -3.8604   -0.6587 H   0  0  0  0  0  0  0  0  0  0  0  0
    4.8957   -4.8507   -2.1027 H   0  0  0  0  0  0  0  0  0  0  0  0
    5.6571   -3.4927   -2.9043 H   0  0  0  0  0  0  0  0  0  0  0  0
  1  2  2  0
  2  7  1  0
  2  3  1  0
  3  4  1  0
  3 21  1  0
  3 22  1  0
  4  5  1  0
  4 23  1  0
  4 24  1  0
  5 11  1  6
  5  6  1  0
  5  8  1  0
  6  7  1  0
  6 25  1  0
  6 26  1  0
  7 27  1  0
  7 28  1  0
  8  9  1  0
 10  9  1  1
 10 19  1  0
 10 11  1  0
 10 12  1  0
 12 17  1  0
 12 13  1  0
 12 29  1  1
 13 14  1  0
 13 30  1  0
 13 31  1  0
 14 20  1  0
 14 15  1  0
 14 32  1  6
 15 16  1  0
 15 33  1  0
 15 34  1  0
 16 17  1  0
 16 18  1  0
 16 35  1  6
 17 36  1  0
 17 37  1  0
 18 19  1  0
 18 38  1  0
 18 39  1  0
 19 20  1  0
 19 40  1  1
 20 41  1  0
 20 42  1  0
M  END
>  <i_m_ct_stereo_status>  (198) 
1

>  <s_m_source_file>  (198) 
/var/tmp/pbs.5076255.sched01/tmpbrsd6n1o/39u_ie0p0h.sdf

>  <i_m_source_file_index>  (198) 
37

>  <i_lp_mmshare_version>  (198) 
48012

>  <i_f3d_flags>  (198) 
0

>  <s_epik_input>  (198) 
W0NIMl0xW0NIMl1DKD1PKVtDSDJdW0NIMl1DMTJPT1tDQEBdMyhPMilbQ0BASF00W0NIMl1bQ0BIXTVbQ0gyXVtDQEBIXShbQ0gyXTQpW0NIMl1bQ0BASF0zW0NIMl01

>  <s_epik_cmdline>  (198) 
J2VwaWtfcHl0aG9uJywgJy1waHQnLCAnMi4wJywgJy1waCcsICc3LjAnLCAnLXRuJywgJzgnLCAnLW1hJywgJzIwMCcsICctaW1hZScsICc8aW5maWxlLm1hZT4nLCAnLW9tYWUnLCAnPG91dGZpbGUubWFlPic=

>  <r_lp_tautomer_probability>  (198) 
1

>  <r_epik_Ionization_Penalty>  (198) 
2.59801e-12

>  <r_epik_Ionization_Penalty_Charging>  (198) 
0

>  <r_epik_Ionization_Penalty_Neutral>  (198) 
2.59801e-12

>  <r_epik_State_Penalty>  (198) 
-0

>  <r_epik_Charging_Adjusted_Penalty>  (198) 
0

>  <i_epik_Tot_Q>  (198) 
0

>  <i_epik_Tot_abs_Q>  (198) 
0

>  <s_lp_Force_Field>  (198) 
OPLS3e

>  <r_lp_Energy>  (198) 
-3.38791

>  <b_lp_Chiralities_Consistent>  (198) 
1

>  <s_lp_Variant>  (198) 
59:0-1

>  <s_i_glide_gridfile>  (198) 
pfpi4k_grid

>  <i_i_glide_lignum>  (198) 
37

>  <i_i_glide_rotatable_bonds>  (198) 
0

>  <r_i_docking_score>  (198) 
-2.86933

>  <r_i_glide_ligand_efficiency>  (198) 
-0.143466

>  <r_i_glide_ligand_efficiency_sa>  (198) 
-0.389428

>  <r_i_glide_ligand_efficiency_ln>  (198) 
-0.718098

>  <r_i_glide_gscore>  (198) 
-2.86933

>  <r_i_glide_lipo>  (198) 
-0.216437

>  <r_i_glide_hbond>  (198) 
0

>  <r_i_glide_metal>  (198) 
-0

>  <r_i_glide_rewards>  (198) 
-1.6212

>  <r_i_glide_evdw>  (198) 
-22.64

>  <r_i_glide_ecoul>  (198) 
0.739124

>  <r_i_glide_erotb>  (198) 
0

>  <r_i_glide_esite>  (198) 
-0.0105647

>  <r_i_glide_emodel>  (198) 
-26.0955

>  <r_i_glide_energy>  (198) 
-21.9009

>  <r_i_glide_einternal>  (198) 
0

>  <r_i_glide_intrahb_reward>  (198) 
-0

>  <i_i_glide_confnum>  (198) 
4

>  <i_i_glide_posenum>  (198) 
38

>  <r_i_glide_eff_state_penalty>  (198) 
0

>  <ligand_id>  (198) 
59

>  <original_smiles>  (198) 
O=C1CCC2(CC1)OOC1(O2)C2CC3CC(C2)CC1C3

>  <smiles>  (198) 
[H]C1([H])C(=O)C([H])([H])C([H])([H])C2(OOC3(O2)C2([H])C([H])([H])C4([H])C([H])([H])C([H])(C2([H])[H])C([H])([H])C3([H])C4([H])[H])C1([H])[H]

$$$$
60:0:0
     RDKit          3D

 62 68  0  0  1  0  0  0  0  0999 V2000
    2.8341   -5.3102    1.0659 C   0  0  0  0  0  0  0  0  0  0  0  0
    2.0365   -6.2859    1.5632 C   0  0  0  0  0  0  0  0  0  0  0  0
    0.8023   -6.6802    0.7575 C   0  0  0  0  0  0  0  0  0  0  0  0
    2.3420   -6.9474    2.9320 C   0  0  1  0  0  0  0  0  0  0  0  0
    3.1457   -6.0744    3.6920 O   0  0  0  0  0  0  0  0  0  0  0  0
    3.1772   -6.5156    5.0488 C   0  0  2  0  0  0  0  0  0  0  0  0
    4.6145   -6.7963    5.3277 C   0  0  2  0  0  0  0  0  0  0  0  0
    5.4493   -6.1149    4.3879 O   0  0  0  0  0  0  0  0  0  0  0  0
    5.4427   -7.5433    4.3429 C   0  0  1  0  0  0  0  0  0  0  0  0
    6.5468   -8.1474    4.9926 O   0  0  0  0  0  0  0  0  0  0  0  0
    4.7842   -8.3532    3.1690 C   0  0  1  0  0  0  0  0  0  0  0  0
    5.6937   -8.2883    1.8701 C   0  0  0  0  0  0  0  0  0  0  0  0
    6.0131   -9.6673    1.2506 C   0  0  0  0  0  0  0  0  0  0  0  0
    7.0478   -7.5560    2.0033 C   0  0  0  0  0  0  0  0  0  0  0  0
    4.8451   -9.6541    3.7529 O   0  0  0  0  0  0  0  0  0  0  0  0
    3.8768   -9.7532    4.7973 C   0  0  2  0  0  0  0  0  0  0  0  0
    3.5723  -11.2404    4.9472 C   0  0  0  0  0  0  0  0  0  0  0  0
    2.3026  -11.4618    4.1481 C   0  0  0  0  0  0  0  0  0  0  0  0
    1.5257  -10.1475    4.2997 C   0  0  2  0  0  0  0  0  0  0  0  0
    0.8149  -10.2430    5.6818 C   0  0  0  0  0  0  0  0  0  0  0  0
    0.4011  -10.1109    3.2446 C   0  0  0  0  0  0  0  0  0  0  0  0
    0.0715   -8.7983    2.8399 O   0  0  0  0  0  0  0  0  0  0  0  0
   -0.0798   -7.8447    3.7093 C   0  0  0  0  0  0  0  0  0  0  0  0
   -1.1587   -7.6428    4.2746 O   0  0  0  0  0  0  0  0  0  0  0  0
    1.1845   -7.0055    4.0005 C   0  0  2  0  0  0  0  0  0  0  0  0
    0.6028   -5.6003    4.4108 C   0  0  0  0  0  0  0  0  0  0  0  0
    2.1425   -7.6742    5.0093 C   0  0  1  0  0  0  0  0  0  0  0  0
    2.6314   -8.9913    4.2679 C   0  0  1  0  0  0  0  0  0  0  0  0
    3.1480   -8.3373    2.9320 C   0  0  1  0  0  0  0  0  0  0  0  0
    2.8486   -9.1624    1.6489 C   0  0  0  0  0  0  0  0  0  0  0  0
    2.6192   -4.8501    0.1141 H   0  0  0  0  0  0  0  0  0  0  0  0
    3.7123   -4.9523    1.5872 H   0  0  0  0  0  0  0  0  0  0  0  0
    0.5639   -7.7351    0.7870 H   0  0  0  0  0  0  0  0  0  0  0  0
    0.9679   -6.4499   -0.2983 H   0  0  0  0  0  0  0  0  0  0  0  0
   -0.0472   -6.0744    1.0738 H   0  0  0  0  0  0  0  0  0  0  0  0
    2.8822   -5.7037    5.7178 H   0  0  0  0  0  0  0  0  0  0  0  0
    4.9339   -6.7263    6.3631 H   0  0  0  0  0  0  0  0  0  0  0  0
    6.2213   -8.7157    5.6729 H   0  0  0  0  0  0  0  0  0  0  0  0
    5.1661   -7.6842    1.1446 H   0  0  0  0  0  0  0  0  0  0  0  0
    6.6160  -10.2769    1.9231 H   0  0  0  0  0  0  0  0  0  0  0  0
    6.5717   -9.5645    0.3231 H   0  0  0  0  0  0  0  0  0  0  0  0
    5.1451  -10.2570    1.0066 H   0  0  0  0  0  0  0  0  0  0  0  0
    7.7235   -8.0710    2.6913 H   0  0  0  0  0  0  0  0  0  0  0  0
    6.9375   -6.5229    2.3423 H   0  0  0  0  0  0  0  0  0  0  0  0
    7.5651   -7.5120    1.0429 H   0  0  0  0  0  0  0  0  0  0  0  0
    4.2396   -9.3631    5.7469 H   0  0  0  0  0  0  0  0  0  0  0  0
    4.3892  -11.8853    4.6058 H   0  0  0  0  0  0  0  0  0  0  0  0
    3.3741  -11.4864    5.9919 H   0  0  0  0  0  0  0  0  0  0  0  0
    2.5553  -11.6898    3.1124 H   0  0  0  0  0  0  0  0  0  0  0  0
    1.7452  -12.3206    4.5286 H   0  0  0  0  0  0  0  0  0  0  0  0
    0.1169   -9.4285    5.8740 H   0  0  0  0  0  0  0  0  0  0  0  0
    1.5298  -10.2526    6.5096 H   0  0  0  0  0  0  0  0  0  0  0  0
    0.2144  -11.1539    5.7461 H   0  0  0  0  0  0  0  0  0  0  0  0
    0.7339  -10.6399    2.3542 H   0  0  0  0  0  0  0  0  0  0  0  0
   -0.4827  -10.6646    3.5637 H   0  0  0  0  0  0  0  0  0  0  0  0
    1.3252   -4.7803    4.4734 H   0  0  0  0  0  0  0  0  0  0  0  0
    0.0899   -5.6557    5.3807 H   0  0  0  0  0  0  0  0  0  0  0  0
   -0.1395   -5.2723    3.6764 H   0  0  0  0  0  0  0  0  0  0  0  0
    1.7170   -7.8198    6.0003 H   0  0  0  0  0  0  0  0  0  0  0  0
    3.2269  -10.1824    1.7535 H   0  0  0  0  0  0  0  0  0  0  0  0
    3.3749   -8.7586    0.7917 H   0  0  0  0  0  0  0  0  0  0  0  0
    1.8348   -9.1799    1.3153 H   0  0  0  0  0  0  0  0  0  0  0  0
  1  2  2  0
  1 31  1  0
  1 32  1  0
  2  3  1  0
  4  2  1  6
  3 33  1  0
  3 34  1  0
  3 35  1  0
  4 25  1  0
  4 29  1  0
  4  5  1  0
  5  6  1  0
  6 27  1  0
  6  7  1  0
  6 36  1  1
  7  9  1  0
  7  8  1  0
  7 37  1  1
  8  9  1  0
  9 10  1  1
  9 11  1  0
 10 38  1  0
 11 29  1  0
 11 12  1  6
 11 15  1  0
 12 13  1  0
 12 14  1  0
 12 39  1  0
 13 40  1  0
 13 41  1  0
 13 42  1  0
 14 43  1  0
 14 44  1  0
 14 45  1  0
 15 16  1  0
 16 28  1  0
 16 17  1  0
 16 46  1  1
 17 18  1  0
 17 47  1  0
 17 48  1  0
 18 19  1  0
 18 49  1  0
 18 50  1  0
 28 19  1  6
 19 20  1  1
 19 21  1  0
 20 51  1  0
 20 52  1  0
 20 53  1  0
 21 22  1  0
 21 54  1  0
 21 55  1  0
 22 23  1  0
 23 24  2  0
 23 25  1  0
 25 26  1  1
 25 27  1  0
 26 56  1  0
 26 57  1  0
 26 58  1  0
 27 28  1  0
 27 59  1  1
 28 29  1  0
 29 30  1  6
 30 60  1  0
 30 61  1  0
 30 62  1  0
M  END
>  <i_m_ct_stereo_status>  (199) 
1

>  <s_m_source_file>  (199) 
/var/tmp/pbs.5076255.sched01/tmpbrsd6n1o/39u_ie0p0h.sdf

>  <i_m_source_file_index>  (199) 
38

>  <i_lp_mmshare_version>  (199) 
48012

>  <i_f3d_flags>  (199) 
0

>  <s_epik_input>  (199) 
W0NIMl0xW0NIMl1bQ0BdMihbQ0gzXSlbQ0gyXU9DKD1PKVtDQF0oW0NIM10pKFtDQF0oTzMpKEMoPVtDSDJdKVtDSDNdKVtDQEBdNDVbQ0gzXSlbQ0BASF02W0NASF0zW0NASF0oTzcpW0NAQF03KFtPSF0pW0NAQF00KFtDSF0oW0NIM10pW0NIM10pT1tDQEhdMVtDQF0yNTY=

>  <s_epik_cmdline>  (199) 
J2VwaWtfcHl0aG9uJywgJy1waHQnLCAnMi4wJywgJy1waCcsICc3LjAnLCAnLXRuJywgJzgnLCAnLW1hJywgJzIwMCcsICctaW1hZScsICc8aW5maWxlLm1hZT4nLCAnLW9tYWUnLCAnPG91dGZpbGUubWFlPic=

>  <r_lp_tautomer_probability>  (199) 
1

>  <r_epik_Ionization_Penalty>  (199) 
2.02728e-06

>  <r_epik_Ionization_Penalty_Charging>  (199) 
0

>  <r_epik_Ionization_Penalty_Neutral>  (199) 
2.02728e-06

>  <r_epik_State_Penalty>  (199) 
-0

>  <r_epik_Charging_Adjusted_Penalty>  (199) 
0

>  <i_epik_Tot_Q>  (199) 
0

>  <i_epik_Tot_abs_Q>  (199) 
0

>  <s_epik_Chemistry_Notes>  (199) 
This compound has an ester and may undergo hydrolysis at high or low pH.

>  <s_lp_Force_Field>  (199) 
OPLS3e

>  <r_lp_Energy>  (199) 
130.142

>  <b_lp_Chiralities_Consistent>  (199) 
1

>  <s_lp_Variant>  (199) 
60:0-1

>  <s_i_glide_gridfile>  (199) 
pfpi4k_grid

>  <i_i_glide_lignum>  (199) 
38

>  <i_i_glide_rotatable_bonds>  (199) 
3

>  <r_i_docking_score>  (199) 
-1.95863

>  <r_i_glide_ligand_efficiency>  (199) 
-0.0652876

>  <r_i_glide_ligand_efficiency_sa>  (199) 
-0.202864

>  <r_i_glide_ligand_efficiency_ln>  (199) 
-0.445021

>  <r_i_glide_gscore>  (199) 
-1.95863

>  <r_i_glide_lipo>  (199) 
-0.12678

>  <r_i_glide_hbond>  (199) 
0

>  <r_i_glide_metal>  (199) 
-0

>  <r_i_glide_rewards>  (199) 
-0.569269

>  <r_i_glide_evdw>  (199) 
-23.8601

>  <r_i_glide_ecoul>  (199) 
-0.956881

>  <r_i_glide_erotb>  (199) 
0.113885

>  <r_i_glide_esite>  (199) 
-0.0399267

>  <r_i_glide_emodel>  (199) 
-23.5209

>  <r_i_glide_energy>  (199) 
-24.817

>  <r_i_glide_einternal>  (199) 
6.71754

>  <r_i_glide_intrahb_reward>  (199) 
-0

>  <i_i_glide_confnum>  (199) 
4

>  <i_i_glide_posenum>  (199) 
27

>  <r_i_glide_eff_state_penalty>  (199) 
0

>  <ligand_id>  (199) 
60

>  <original_smiles>  (199) 
C=C(C)C12OC3C4OC4(O)C4(C(C)C)OC5CCC6(C)COC(=O)C1(C)C3C56C24C

>  <smiles>  (199) 
[H]OC12OC1([H])C1([H])OC3(C(=C([H])[H])C([H])([H])[H])C4(C([H])([H])[H])C(=O)OC([H])([H])C5(C([H])([H])[H])C([H])([H])C([H])([H])C6([H])OC2(C([H])(C([H])([H])[H])C([H])([H])[H])C3(C([H])([H])[H])C65C14[H]

$$$$
60:0:1
     RDKit          3D

 62 68  0  0  1  0  0  0  0  0999 V2000
    1.5708   -5.9919    0.6604 C   0  0  0  0  0  0  0  0  0  0  0  0
    2.7370   -5.7038    1.2298 C   0  0  0  0  0  0  0  0  0  0  0  0
    3.4976   -4.5734    0.6043 C   0  0  0  0  0  0  0  0  0  0  0  0
    3.3370   -6.4019    2.4789 C   0  0  1  0  0  0  0  0  0  0  0  0
    3.6624   -5.4044    3.4266 O   0  0  0  0  0  0  0  0  0  0  0  0
    3.9333   -6.0394    4.6769 C   0  0  2  0  0  0  0  0  0  0  0  0
    5.3631   -5.6867    4.9795 C   0  0  2  0  0  0  0  0  0  0  0  0
    5.8043   -4.5732    4.1773 O   0  0  0  0  0  0  0  0  0  0  0  0
    6.4042   -5.8491    3.9484 C   0  0  1  0  0  0  0  0  0  0  0  0
    7.6704   -6.0143    4.5140 O   0  0  0  0  0  0  0  0  0  0  0  0
    6.1748   -6.6291    2.6256 C   0  0  1  0  0  0  0  0  0  0  0  0
    7.0330   -5.9970    1.4255 C   0  0  0  0  0  0  0  0  0  0  0  0
    8.5258   -5.7873    1.6850 C   0  0  0  0  0  0  0  0  0  0  0  0
    6.5325   -4.6335    0.8611 C   0  0  0  0  0  0  0  0  0  0  0  0
    6.7770   -7.8792    2.9402 O   0  0  0  0  0  0  0  0  0  0  0  0
    6.0100   -8.5735    3.9241 C   0  0  2  0  0  0  0  0  0  0  0  0
    6.4038  -10.0546    3.8429 C   0  0  0  0  0  0  0  0  0  0  0  0
    5.3549  -10.6714    2.9450 C   0  0  0  0  0  0  0  0  0  0  0  0
    4.0783   -9.8566    3.2377 C   0  0  2  0  0  0  0  0  0  0  0  0
    3.4914  -10.4923    4.5388 C   0  0  0  0  0  0  0  0  0  0  0  0
    3.0560  -10.1103    2.0935 C   0  0  0  0  0  0  0  0  0  0  0  0
    2.1238   -9.0596    1.8702 O   0  0  0  0  0  0  0  0  0  0  0  0
    1.5892   -8.4564    2.9207 C   0  0  0  0  0  0  0  0  0  0  0  0
    0.5680   -8.8840    3.4654 O   0  0  0  0  0  0  0  0  0  0  0  0
    2.3321   -7.1806    3.4211 C   0  0  2  0  0  0  0  0  0  0  0  0
    1.1825   -6.2833    4.0035 C   0  0  0  0  0  0  0  0  0  0  0  0
    3.5187   -7.5141    4.3619 C   0  0  1  0  0  0  0  0  0  0  0  0
    4.5432   -8.3380    3.4556 C   0  0  1  0  0  0  0  0  0  0  0  0
    4.6859   -7.2775    2.2829 C   0  0  1  0  0  0  0  0  0  0  0  0
    4.7376   -7.9017    0.8540 C   0  0  0  0  0  0  0  0  0  0  0  0
    1.2694   -5.4432   -0.2267 H   0  0  0  0  0  0  0  0  0  0  0  0
    0.9096   -6.7628    1.0290 H   0  0  0  0  0  0  0  0  0  0  0  0
    4.1398   -4.0827    1.3501 H   0  0  0  0  0  0  0  0  0  0  0  0
    2.9334   -3.8020    0.1197 H   0  0  0  0  0  0  0  0  0  0  0  0
    4.0583   -5.0271   -0.2211 H   0  0  0  0  0  0  0  0  0  0  0  0
    3.3029   -5.6062    5.4688 H   0  0  0  0  0  0  0  0  0  0  0  0
    5.6368   -5.6164    6.0210 H   0  0  0  0  0  0  0  0  0  0  0  0
    8.3199   -5.7750    3.8722 H   0  0  0  0  0  0  0  0  0  0  0  0
    6.9560   -6.6699    0.5774 H   0  0  0  0  0  0  0  0  0  0  0  0
    8.6728   -5.0050    2.4200 H   0  0  0  0  0  0  0  0  0  0  0  0
    8.9946   -5.4469    0.7675 H   0  0  0  0  0  0  0  0  0  0  0  0
    8.9993   -6.7037    2.0025 H   0  0  0  0  0  0  0  0  0  0  0  0
    6.5008   -3.7896    1.6020 H   0  0  0  0  0  0  0  0  0  0  0  0
    5.6674   -4.8666    0.5135 H   0  0  0  0  0  0  0  0  0  0  0  0
    7.0672   -4.3389   -0.0694 H   0  0  0  0  0  0  0  0  0  0  0  0
    6.1933   -8.2257    4.9418 H   0  0  0  0  0  0  0  0  0  0  0  0
    7.4101  -10.2136    3.4480 H   0  0  0  0  0  0  0  0  0  0  0  0
    6.3881  -10.5168    4.8330 H   0  0  0  0  0  0  0  0  0  0  0  0
    5.6683  -10.5802    1.9083 H   0  0  0  0  0  0  0  0  0  0  0  0
    5.2362  -11.7444    3.1132 H   0  0  0  0  0  0  0  0  0  0  0  0
    2.5119  -10.1095    4.8099 H   0  0  0  0  0  0  0  0  0  0  0  0
    4.1343  -10.3330    5.4047 H   0  0  0  0  0  0  0  0  0  0  0  0
    3.3617  -11.5681    4.4388 H   0  0  0  0  0  0  0  0  0  0  0  0
    3.5780  -10.2532    1.1465 H   0  0  0  0  0  0  0  0  0  0  0  0
    2.5235  -11.0497    2.2619 H   0  0  0  0  0  0  0  0  0  0  0  0
    1.4539   -5.2642    4.2551 H   0  0  0  0  0  0  0  0  0  0  0  0
    0.7645   -6.7210    4.9068 H   0  0  0  0  0  0  0  0  0  0  0  0
    0.3551   -6.1763    3.3006 H   0  0  0  0  0  0  0  0  0  0  0  0
    3.2333   -8.0212    5.2804 H   0  0  0  0  0  0  0  0  0  0  0  0
    5.4139   -8.7508    0.7912 H   0  0  0  0  0  0  0  0  0  0  0  0
    5.0301   -7.1918    0.0926 H   0  0  0  0  0  0  0  0  0  0  0  0
    3.7759   -8.2102    0.4826 H   0  0  0  0  0  0  0  0  0  0  0  0
  1  2  2  0
  1 31  1  0
  1 32  1  0
  2  3  1  0
  4  2  1  6
  3 33  1  0
  3 34  1  0
  3 35  1  0
  4 25  1  0
  4 29  1  0
  4  5  1  0
  5  6  1  0
  6 27  1  0
  6  7  1  0
  6 36  1  1
  7  9  1  0
  7  8  1  0
  7 37  1  1
  8  9  1  0
  9 10  1  1
  9 11  1  0
 10 38  1  0
 11 29  1  0
 11 12  1  6
 11 15  1  0
 12 13  1  0
 12 14  1  0
 12 39  1  0
 13 40  1  0
 13 41  1  0
 13 42  1  0
 14 43  1  0
 14 44  1  0
 14 45  1  0
 15 16  1  0
 16 28  1  0
 16 17  1  0
 16 46  1  1
 17 18  1  0
 17 47  1  0
 17 48  1  0
 18 19  1  0
 18 49  1  0
 18 50  1  0
 28 19  1  6
 19 20  1  1
 19 21  1  0
 20 51  1  0
 20 52  1  0
 20 53  1  0
 21 22  1  0
 21 54  1  0
 21 55  1  0
 22 23  1  0
 23 24  2  0
 23 25  1  0
 25 26  1  1
 25 27  1  0
 26 56  1  0
 26 57  1  0
 26 58  1  0
 27 28  1  0
 27 59  1  1
 28 29  1  0
 29 30  1  6
 30 60  1  0
 30 61  1  0
 30 62  1  0
M  END
>  <i_m_ct_stereo_status>  (200) 
1

>  <s_m_source_file>  (200) 
/var/tmp/pbs.5076255.sched01/tmpbrsd6n1o/39u_ie0p0h.sdf

>  <i_m_source_file_index>  (200) 
38

>  <i_lp_mmshare_version>  (200) 
48012

>  <i_f3d_flags>  (200) 
0

>  <s_epik_input>  (200) 
W0NIMl0xW0NIMl1bQ0BdMihbQ0gzXSlbQ0gyXU9DKD1PKVtDQF0oW0NIM10pKFtDQF0oTzMpKEMoPVtDSDJdKVtDSDNdKVtDQEBdNDVbQ0gzXSlbQ0BASF02W0NASF0zW0NASF0oTzcpW0NAQF03KFtPSF0pW0NAQF00KFtDSF0oW0NIM10pW0NIM10pT1tDQEhdMVtDQF0yNTY=

>  <s_epik_cmdline>  (200) 
J2VwaWtfcHl0aG9uJywgJy1waHQnLCAnMi4wJywgJy1waCcsICc3LjAnLCAnLXRuJywgJzgnLCAnLW1hJywgJzIwMCcsICctaW1hZScsICc8aW5maWxlLm1hZT4nLCAnLW9tYWUnLCAnPG91dGZpbGUubWFlPic=

>  <r_lp_tautomer_probability>  (200) 
1

>  <r_epik_Ionization_Penalty>  (200) 
2.02728e-06

>  <r_epik_Ionization_Penalty_Charging>  (200) 
0

>  <r_epik_Ionization_Penalty_Neutral>  (200) 
2.02728e-06

>  <r_epik_State_Penalty>  (200) 
-0

>  <r_epik_Charging_Adjusted_Penalty>  (200) 
0

>  <i_epik_Tot_Q>  (200) 
0

>  <i_epik_Tot_abs_Q>  (200) 
0

>  <s_epik_Chemistry_Notes>  (200) 
This compound has an ester and may undergo hydrolysis at high or low pH.

>  <s_lp_Force_Field>  (200) 
OPLS3e

>  <r_lp_Energy>  (200) 
130.142

>  <b_lp_Chiralities_Consistent>  (200) 
1

>  <s_lp_Variant>  (200) 
60:0-1

>  <s_i_glide_gridfile>  (200) 
pfpi4k_grid

>  <i_i_glide_lignum>  (200) 
38

>  <i_i_glide_rotatable_bonds>  (200) 
3

>  <r_i_docking_score>  (200) 
-1.70186

>  <r_i_glide_ligand_efficiency>  (200) 
-0.0567286

>  <r_i_glide_ligand_efficiency_sa>  (200) 
-0.176269

>  <r_i_glide_ligand_efficiency_ln>  (200) 
-0.386681

>  <r_i_glide_gscore>  (200) 
-1.70186

>  <r_i_glide_lipo>  (200) 
-0.251655

>  <r_i_glide_hbond>  (200) 
0

>  <r_i_glide_metal>  (200) 
-0

>  <r_i_glide_rewards>  (200) 
-0.571234

>  <r_i_glide_evdw>  (200) 
-19.8069

>  <r_i_glide_ecoul>  (200) 
-0.509446

>  <r_i_glide_erotb>  (200) 
0.113885

>  <r_i_glide_esite>  (200) 
-0.0130122

>  <r_i_glide_emodel>  (200) 
-18.8765

>  <r_i_glide_energy>  (200) 
-20.3163

>  <r_i_glide_einternal>  (200) 
0.204214

>  <r_i_glide_intrahb_reward>  (200) 
-0

>  <i_i_glide_confnum>  (200) 
4

>  <i_i_glide_posenum>  (200) 
1

>  <r_i_glide_eff_state_penalty>  (200) 
0

>  <ligand_id>  (200) 
60

>  <original_smiles>  (200) 
C=C(C)C12OC3C4OC4(O)C4(C(C)C)OC5CCC6(C)COC(=O)C1(C)C3C56C24C

>  <smiles>  (200) 
[H]OC12OC1([H])C1([H])OC3(C(=C([H])[H])C([H])([H])[H])C4(C([H])([H])[H])C(=O)OC([H])([H])C5(C([H])([H])[H])C([H])([H])C([H])([H])C6([H])OC2(C([H])(C([H])([H])[H])C([H])([H])[H])C3(C([H])([H])[H])C65C14[H]

$$$$
60:0:2
     RDKit          3D

 62 68  0  0  1  0  0  0  0  0999 V2000
    1.2220   -5.6154   -0.2764 C   0  0  0  0  0  0  0  0  0  0  0  0
    2.1111   -4.6035   -0.2542 C   0  0  0  0  0  0  0  0  0  0  0  0
    1.9561   -3.6089   -1.3608 C   0  0  0  0  0  0  0  0  0  0  0  0
    3.2015   -4.3808    0.8238 C   0  0  1  0  0  0  0  0  0  0  0  0
    3.1881   -3.0271    1.2185 O   0  0  0  0  0  0  0  0  0  0  0  0
    3.9540   -2.8953    2.4133 C   0  0  2  0  0  0  0  0  0  0  0  0
    5.0553   -1.9407    2.0445 C   0  0  2  0  0  0  0  0  0  0  0  0
    4.7258   -1.2108    0.8504 O   0  0  0  0  0  0  0  0  0  0  0  0
    5.8344   -2.1104    0.7954 C   0  0  1  0  0  0  0  0  0  0  0  0
    7.0778   -1.4610    0.8736 O   0  0  0  0  0  0  0  0  0  0  0  0
    5.7374   -3.4256   -0.0541 C   0  0  1  0  0  0  0  0  0  0  0  0
    5.9178   -3.1261   -1.6131 C   0  0  0  0  0  0  0  0  0  0  0  0
    7.2598   -2.5399   -1.9497 C   0  0  0  0  0  0  0  0  0  0  0  0
    4.8129   -2.1931   -2.2646 C   0  0  0  0  0  0  0  0  0  0  0  0
    6.9292   -4.0912    0.3607 O   0  0  0  0  0  0  0  0  0  0  0  0
    6.7843   -4.5195    1.7069 C   0  0  2  0  0  0  0  0  0  0  0  0
    7.8572   -5.5787    1.9556 C   0  0  0  0  0  0  0  0  0  0  0  0
    7.1238   -6.8769    1.7552 C   0  0  0  0  0  0  0  0  0  0  0  0
    5.6905   -6.5881    2.2457 C   0  0  2  0  0  0  0  0  0  0  0  0
    5.7595   -6.7427    3.7961 C   0  0  0  0  0  0  0  0  0  0  0  0
    4.7388   -7.6900    1.7148 C   0  0  0  0  0  0  0  0  0  0  0  0
    3.4071   -7.2351    1.5284 O   0  0  0  0  0  0  0  0  0  0  0  0
    2.8421   -6.5067    2.4681 C   0  0  0  0  0  0  0  0  0  0  0  0
    2.2952   -7.0159    3.4418 O   0  0  0  0  0  0  0  0  0  0  0  0
    2.9256   -4.9682    2.2597 C   0  0  2  0  0  0  0  0  0  0  0  0
    1.6237   -4.4257    2.9318 C   0  0  0  0  0  0  0  0  0  0  0  0
    4.2702   -4.3829    2.7500 C   0  0  1  0  0  0  0  0  0  0  0  0
    5.3528   -5.0791    1.8060 C   0  0  1  0  0  0  0  0  0  0  0  0
    4.7346   -4.6585    0.4160 C   0  0  1  0  0  0  0  0  0  0  0  0
    4.8159   -5.7717   -0.6467 C   0  0  0  0  0  0  0  0  0  0  0  0
    0.5386   -5.6067   -1.1069 H   0  0  0  0  0  0  0  0  0  0  0  0
    1.1715   -6.4038    0.4582 H   0  0  0  0  0  0  0  0  0  0  0  0
    2.3339   -2.6293   -1.0304 H   0  0  0  0  0  0  0  0  0  0  0  0
    0.9649   -3.4706   -1.7593 H   0  0  0  0  0  0  0  0  0  0  0  0
    2.6120   -3.9146   -2.1848 H   0  0  0  0  0  0  0  0  0  0  0  0
    3.3454   -2.4280    3.1964 H   0  0  0  0  0  0  0  0  0  0  0  0
    5.4441   -1.3320    2.8465 H   0  0  0  0  0  0  0  0  0  0  0  0
    7.1622   -1.0665    1.7098 H   0  0  0  0  0  0  0  0  0  0  0  0
    5.9399   -4.0529   -2.1947 H   0  0  0  0  0  0  0  0  0  0  0  0
    7.2568   -1.5241   -1.5707 H   0  0  0  0  0  0  0  0  0  0  0  0
    7.2448   -2.4944   -3.0274 H   0  0  0  0  0  0  0  0  0  0  0  0
    8.1408   -3.1234   -1.6372 H   0  0  0  0  0  0  0  0  0  0  0  0
    4.8453   -1.1394   -1.8451 H   0  0  0  0  0  0  0  0  0  0  0  0
    3.9409   -2.6379   -2.1597 H   0  0  0  0  0  0  0  0  0  0  0  0
    5.0299   -2.1381   -3.3645 H   0  0  0  0  0  0  0  0  0  0  0  0
    6.8899   -3.6943    2.3866 H   0  0  0  0  0  0  0  0  0  0  0  0
    8.7276   -5.4957    1.2992 H   0  0  0  0  0  0  0  0  0  0  0  0
    8.2489   -5.5278    2.9683 H   0  0  0  0  0  0  0  0  0  0  0  0
    7.1535   -7.1216    0.6998 H   0  0  0  0  0  0  0  0  0  0  0  0
    7.5919   -7.7091    2.2822 H   0  0  0  0  0  0  0  0  0  0  0  0
    4.7924   -6.6816    4.2884 H   0  0  0  0  0  0  0  0  0  0  0  0
    6.3931   -5.9831    4.2582 H   0  0  0  0  0  0  0  0  0  0  0  0
    6.1703   -7.7103    4.0703 H   0  0  0  0  0  0  0  0  0  0  0  0
    5.0812   -8.0181    0.7314 H   0  0  0  0  0  0  0  0  0  0  0  0
    4.7769   -8.5867    2.3428 H   0  0  0  0  0  0  0  0  0  0  0  0
    1.4018   -3.3842    2.7260 H   0  0  0  0  0  0  0  0  0  0  0  0
    1.6612   -4.5456    4.0117 H   0  0  0  0  0  0  0  0  0  0  0  0
    0.7545   -4.9823    2.5849 H   0  0  0  0  0  0  0  0  0  0  0  0
    4.4594   -4.5008    3.8178 H   0  0  0  0  0  0  0  0  0  0  0  0
    5.8142   -6.1962   -0.6692 H   0  0  0  0  0  0  0  0  0  0  0  0
    4.6110   -5.3925   -1.6267 H   0  0  0  0  0  0  0  0  0  0  0  0
    4.1000   -6.5794   -0.5352 H   0  0  0  0  0  0  0  0  0  0  0  0
  1  2  2  0
  1 31  1  0
  1 32  1  0
  2  3  1  0
  4  2  1  6
  3 33  1  0
  3 34  1  0
  3 35  1  0
  4 25  1  0
  4 29  1  0
  4  5  1  0
  5  6  1  0
  6 27  1  0
  6  7  1  0
  6 36  1  1
  7  9  1  0
  7  8  1  0
  7 37  1  1
  8  9  1  0
  9 10  1  1
  9 11  1  0
 10 38  1  0
 11 29  1  0
 11 12  1  6
 11 15  1  0
 12 13  1  0
 12 14  1  0
 12 39  1  0
 13 40  1  0
 13 41  1  0
 13 42  1  0
 14 43  1  0
 14 44  1  0
 14 45  1  0
 15 16  1  0
 16 28  1  0
 16 17  1  0
 16 46  1  1
 17 18  1  0
 17 47  1  0
 17 48  1  0
 18 19  1  0
 18 49  1  0
 18 50  1  0
 28 19  1  6
 19 20  1  1
 19 21  1  0
 20 51  1  0
 20 52  1  0
 20 53  1  0
 21 22  1  0
 21 54  1  0
 21 55  1  0
 22 23  1  0
 23 24  2  0
 23 25  1  0
 25 26  1  1
 25 27  1  0
 26 56  1  0
 26 57  1  0
 26 58  1  0
 27 28  1  0
 27 59  1  1
 28 29  1  0
 29 30  1  6
 30 60  1  0
 30 61  1  0
 30 62  1  0
M  END
>  <i_m_ct_stereo_status>  (201) 
1

>  <s_m_source_file>  (201) 
/var/tmp/pbs.5076255.sched01/tmpbrsd6n1o/39u_ie0p0h.sdf

>  <i_m_source_file_index>  (201) 
38

>  <i_lp_mmshare_version>  (201) 
48012

>  <i_f3d_flags>  (201) 
0

>  <s_epik_input>  (201) 
W0NIMl0xW0NIMl1bQ0BdMihbQ0gzXSlbQ0gyXU9DKD1PKVtDQF0oW0NIM10pKFtDQF0oTzMpKEMoPVtDSDJdKVtDSDNdKVtDQEBdNDVbQ0gzXSlbQ0BASF02W0NASF0zW0NASF0oTzcpW0NAQF03KFtPSF0pW0NAQF00KFtDSF0oW0NIM10pW0NIM10pT1tDQEhdMVtDQF0yNTY=

>  <s_epik_cmdline>  (201) 
J2VwaWtfcHl0aG9uJywgJy1waHQnLCAnMi4wJywgJy1waCcsICc3LjAnLCAnLXRuJywgJzgnLCAnLW1hJywgJzIwMCcsICctaW1hZScsICc8aW5maWxlLm1hZT4nLCAnLW9tYWUnLCAnPG91dGZpbGUubWFlPic=

>  <r_lp_tautomer_probability>  (201) 
1

>  <r_epik_Ionization_Penalty>  (201) 
2.02728e-06

>  <r_epik_Ionization_Penalty_Charging>  (201) 
0

>  <r_epik_Ionization_Penalty_Neutral>  (201) 
2.02728e-06

>  <r_epik_State_Penalty>  (201) 
-0

>  <r_epik_Charging_Adjusted_Penalty>  (201) 
0

>  <i_epik_Tot_Q>  (201) 
0

>  <i_epik_Tot_abs_Q>  (201) 
0

>  <s_epik_Chemistry_Notes>  (201) 
This compound has an ester and may undergo hydrolysis at high or low pH.

>  <s_lp_Force_Field>  (201) 
OPLS3e

>  <r_lp_Energy>  (201) 
130.142

>  <b_lp_Chiralities_Consistent>  (201) 
1

>  <s_lp_Variant>  (201) 
60:0-1

>  <s_i_glide_gridfile>  (201) 
pfpi4k_grid

>  <i_i_glide_lignum>  (201) 
38

>  <i_i_glide_rotatable_bonds>  (201) 
3

>  <r_i_docking_score>  (201) 
-1.614

>  <r_i_glide_ligand_efficiency>  (201) 
-0.0538

>  <r_i_glide_ligand_efficiency_sa>  (201) 
-0.167169

>  <r_i_glide_ligand_efficiency_ln>  (201) 
-0.366719

>  <r_i_glide_gscore>  (201) 
-1.614

>  <r_i_glide_lipo>  (201) 
-0.597882

>  <r_i_glide_hbond>  (201) 
0

>  <r_i_glide_metal>  (201) 
-0

>  <r_i_glide_rewards>  (201) 
-0.686209

>  <r_i_glide_evdw>  (201) 
-11.5344

>  <r_i_glide_ecoul>  (201) 
0.905687

>  <r_i_glide_erotb>  (201) 
0.113885

>  <r_i_glide_esite>  (201) 
-0.00292629

>  <r_i_glide_emodel>  (201) 
-10.0378

>  <r_i_glide_energy>  (201) 
-10.6287

>  <r_i_glide_einternal>  (201) 
1.47891

>  <r_i_glide_intrahb_reward>  (201) 
-0

>  <i_i_glide_confnum>  (201) 
4

>  <i_i_glide_posenum>  (201) 
6

>  <r_i_glide_eff_state_penalty>  (201) 
0

>  <ligand_id>  (201) 
60

>  <original_smiles>  (201) 
C=C(C)C12OC3C4OC4(O)C4(C(C)C)OC5CCC6(C)COC(=O)C1(C)C3C56C24C

>  <smiles>  (201) 
[H]OC12OC1([H])C1([H])OC3(C(=C([H])[H])C([H])([H])[H])C4(C([H])([H])[H])C(=O)OC([H])([H])C5(C([H])([H])[H])C([H])([H])C([H])([H])C6([H])OC2(C([H])(C([H])([H])[H])C([H])([H])[H])C3(C([H])([H])[H])C65C14[H]

$$$$
61:0:0
     RDKit          3D

 47 52  0  0  1  0  0  0  0  0999 V2000
    6.9793   -3.0807    0.7167 C   0  0  0  0  0  0  0  0  0  0  0  0
    6.1716   -3.0775    1.8864 O   0  0  0  0  0  0  0  0  0  0  0  0
    4.7802   -3.3854    1.7707 C   0  0  2  0  0  0  0  0  0  0  0  0
    4.6500   -4.7614    1.1106 C   0  0  0  0  0  0  0  0  0  0  0  0
    3.7234   -5.2786    0.2776 C   0  0  0  0  0  0  0  0  0  0  0  0
    2.6176   -4.5482   -0.3122 C   0  0  0  0  0  0  0  0  0  0  0  0
    1.4948   -5.0612   -0.3299 O   0  0  0  0  0  0  0  0  0  0  0  0
    2.9754   -3.2813   -1.0160 C   0  0  0  0  0  0  0  0  0  0  0  0
    2.5264   -3.2048   -2.3457 C   0  0  0  0  0  0  0  0  0  0  0  0
    2.9343   -2.1677   -3.2093 C   0  0  0  0  0  0  0  0  0  0  0  0
    3.7905   -1.1824   -2.7096 C   0  0  0  0  0  0  0  0  0  0  0  0
    4.2048   -1.2166   -1.3660 C   0  0  0  0  0  0  0  0  0  0  0  0
    3.7905   -2.2496   -0.4564 C   0  0  0  0  0  0  0  0  0  0  0  0
    4.0709   -2.1281    1.0819 C   0  0  2  0  0  0  0  0  0  0  0  0
    4.7728   -0.7685    1.4216 C   0  0  0  0  0  0  0  0  0  0  0  0
    3.6547    0.2999    1.4104 C   0  0  0  0  0  0  0  0  0  0  0  0
    2.3630   -0.4356    1.4748 N   0  0  2  0  0  0  0  0  0  0  0  0
    1.4133   -0.0067    2.5429 C   0  0  0  0  0  0  0  0  0  0  0  0
    1.5099   -1.0379    3.6911 C   0  0  0  0  0  0  0  0  0  0  0  0
    2.8178   -1.7197    3.3278 C   0  0  1  0  0  0  0  0  0  0  0  0
    3.3063   -2.9433    4.0282 C   0  0  1  0  0  0  0  0  0  0  0  0
    3.0881   -4.2109    3.3943 N   0  0  0  0  0  0  0  0  0  0  0  0
    4.4174   -3.6204    3.2686 C   0  0  1  0  0  0  0  0  0  0  0  0
    2.7415   -1.8142    1.7993 C   0  0  2  0  0  0  0  0  0  0  0  0
    7.9622   -2.6890    0.9713 H   0  0  0  0  0  0  0  0  0  0  0  0
    6.5839   -2.4405   -0.0680 H   0  0  0  0  0  0  0  0  0  0  0  0
    7.1304   -4.0848    0.3221 H   0  0  0  0  0  0  0  0  0  0  0  0
    5.3939   -5.4559    1.4536 H   0  0  0  0  0  0  0  0  0  0  0  0
    3.7788   -6.3350    0.0327 H   0  0  0  0  0  0  0  0  0  0  0  0
    1.8855   -3.9745   -2.7503 H   0  0  0  0  0  0  0  0  0  0  0  0
    2.5786   -2.1495   -4.2317 H   0  0  0  0  0  0  0  0  0  0  0  0
    4.0919   -0.3652   -3.3616 H   0  0  0  0  0  0  0  0  0  0  0  0
    4.8079   -0.3762   -1.0657 H   0  0  0  0  0  0  0  0  0  0  0  0
    5.2272   -0.8111    2.4172 H   0  0  0  0  0  0  0  0  0  0  0  0
    5.6177   -0.5043    0.7888 H   0  0  0  0  0  0  0  0  0  0  0  0
    3.7892    0.9776    2.2443 H   0  0  0  0  0  0  0  0  0  0  0  0
    3.7184    0.9123    0.5192 H   0  0  0  0  0  0  0  0  0  0  0  0
    1.5902    1.0115    2.8788 H   0  0  0  0  0  0  0  0  0  0  0  0
    0.4113   -0.0223    2.1309 H   0  0  0  0  0  0  0  0  0  0  0  0
    1.5410   -0.5727    4.6812 H   0  0  0  0  0  0  0  0  0  0  0  0
    0.6804   -1.7499    3.6579 H   0  0  0  0  0  0  0  0  0  0  0  0
    3.5479   -0.9889    3.6515 H   0  0  0  0  0  0  0  0  0  0  0  0
    3.3152   -3.0063    5.1214 H   0  0  0  0  0  0  0  0  0  0  0  0
    3.1098   -4.9374    4.1052 H   0  0  0  0  0  0  0  0  0  0  0  0
    5.1188   -4.2300    3.8381 H   0  0  0  0  0  0  0  0  0  0  0  0
    1.9428   -2.4904    1.5015 H   0  0  0  0  0  0  0  0  0  0  0  0
    1.9057   -0.4184    0.5720 H   0  0  0  0  0  0  0  0  0  0  0  0
  1  2  1  0
  1 25  1  0
  1 26  1  0
  1 27  1  0
  3  2  1  1
  3 14  1  0
  3 23  1  0
  3  4  1  0
  4  5  2  0
  4 28  1  0
  5  6  1  0
  5 29  1  0
  6  7  2  0
  6  8  1  0
  8 13  2  0
  8  9  1  0
  9 10  2  0
  9 30  1  0
 10 11  1  0
 10 31  1  0
 11 12  2  0
 11 32  1  0
 12 13  1  0
 12 33  1  0
 13 14  1  0
 14 24  1  0
 14 15  1  6
 15 16  1  0
 15 34  1  0
 15 35  1  0
 16 17  1  0
 16 36  1  0
 16 37  1  0
 17 24  1  0
 17 18  1  0
 17 47  1  6
 18 19  1  0
 18 38  1  0
 18 39  1  0
 19 20  1  0
 19 40  1  0
 19 41  1  0
 20 21  1  0
 20 24  1  0
 20 42  1  6
 21 23  1  0
 21 22  1  0
 21 43  1  1
 22 23  1  0
 22 44  1  0
 23 45  1  1
 24 46  1  1
M  CHG  1  17   1
M  END
>  <i_m_ct_stereo_status>  (202) 
1

>  <s_m_source_file>  (202) 
/var/tmp/pbs.5076255.sched01/tmpbrsd6n1o/39u_ie0p0h.sdf

>  <i_m_source_file_index>  (202) 
39

>  <i_lp_mmshare_version>  (202) 
48012

>  <i_f3d_flags>  (202) 
0

>  <s_epik_input>  (202) 
W0NIMl0xW0NIMl1OKFtDSDJdW0NIMl0yKVtDQEBIXTNbQ0BASF0yW0NAQEhdKFtOSF00KVtDQEBIXTRbQ0BAXShbQ0BdMTM1KShPW0NIM10pW0NIXT1bQ0hdQyg9TyljNmM1W2NIXVtjSF1bY0hdW2NIXTY=

>  <s_epik_cmdline>  (202) 
J2VwaWtfcHl0aG9uJywgJy1waHQnLCAnMi4wJywgJy1waCcsICc3LjAnLCAnLXRuJywgJzgnLCAnLW1hJywgJzIwMCcsICctaW1hZScsICc8aW5maWxlLm1hZT4nLCAnLW9tYWUnLCAnPG91dGZpbGUubWFlPic=

>  <r_epik_Ionization_Penalty>  (202) 
0.00539951

>  <r_epik_Ionization_Penalty_Charging>  (202) 
0.00271766

>  <r_epik_Ionization_Penalty_Neutral>  (202) 
0.00268185

>  <r_epik_State_Penalty>  (202) 
0.004554

>  <r_epik_Charging_Adjusted_Penalty>  (202) 
0.00727166

>  <i_epik_Tot_Q>  (202) 
1

>  <i_epik_Tot_abs_Q>  (202) 
1

>  <s_lp_Force_Field>  (202) 
OPLS3e

>  <r_lp_Energy>  (202) 
79.4964

>  <b_lp_Chiralities_Consistent>  (202) 
1

>  <s_lp_Variant>  (202) 
61:0-1

>  <s_i_glide_gridfile>  (202) 
pfpi4k_grid

>  <i_i_glide_lignum>  (202) 
39

>  <i_i_glide_rotatable_bonds>  (202) 
1

>  <r_i_docking_score>  (202) 
-4.16801

>  <r_i_glide_ligand_efficiency>  (202) 
-0.173667

>  <r_i_glide_ligand_efficiency_sa>  (202) 
-0.500943

>  <r_i_glide_ligand_efficiency_ln>  (202) 
-0.997597

>  <r_i_glide_gscore>  (202) 
-4.16801

>  <r_i_glide_lipo>  (202) 
-0.542697

>  <r_i_glide_hbond>  (202) 
-0.266385

>  <r_i_glide_metal>  (202) 
-0

>  <r_i_glide_rewards>  (202) 
-1.20403

>  <r_i_glide_evdw>  (202) 
-17.1829

>  <r_i_glide_ecoul>  (202) 
-7.72072

>  <r_i_glide_erotb>  (202) 
0

>  <r_i_glide_esite>  (202) 
-0.137646

>  <r_i_glide_emodel>  (202) 
-32.2013

>  <r_i_glide_energy>  (202) 
-24.9036

>  <r_i_glide_einternal>  (202) 
0.0105529

>  <r_i_glide_intrahb_reward>  (202) 
-0

>  <i_i_glide_confnum>  (202) 
1

>  <i_i_glide_posenum>  (202) 
1

>  <r_i_glide_eff_state_penalty>  (202) 
0

>  <ligand_id>  (202) 
61

>  <original_smiles>  (202) 
COC12C=CC(=O)c3ccccc3C13CCN1CCC(C4NC42)C13

>  <smiles>  (202) 
[H]C1=C([H])C2(OC([H])([H])[H])C3([H])N([H])C3([H])C3([H])C([H])([H])C([H])([H])[N+]4([H])C([H])([H])C([H])([H])C2(c2c([H])c([H])c([H])c([H])c2C1=O)C34[H]

$$$$
63:0:0
     RDKit          3D

 79 85  0  0  1  0  0  0  0  0999 V2000
    3.0913   -5.9625    7.8913 C   0  0  0  0  0  0  0  0  0  0  0  0
    2.2875   -5.9796    6.5954 C   0  0  0  0  0  0  0  0  0  0  0  0
    1.0842   -5.7239    6.5796 O   0  0  0  0  0  0  0  0  0  0  0  0
    3.0475   -6.2931    5.5226 O   0  0  0  0  0  0  0  0  0  0  0  0
    2.4935   -6.3994    4.2079 C   0  0  2  0  0  0  0  0  0  0  0  0
    3.1440   -7.5082    3.3197 C   0  0  2  0  0  0  0  0  0  0  0  0
    3.3795   -8.8709    4.0850 C   0  0  0  0  0  0  0  0  0  0  0  0
    4.4870   -8.7731    5.1675 C   0  0  0  0  0  0  0  0  0  0  0  0
    2.0576   -9.3489    4.7461 C   0  0  0  0  0  0  0  0  0  0  0  0
    3.8064   -9.9709    3.0907 C   0  0  0  0  0  0  0  0  0  0  0  0
    3.6261  -11.1644    3.3196 O   0  0  0  0  0  0  0  0  0  0  0  0
    4.5262   -9.5323    1.8279 C   0  0  0  0  0  0  0  0  0  0  0  0
    5.2402   -8.1964    2.0369 C   0  0  0  0  0  0  0  0  0  0  0  0
    4.2886   -7.0375    2.3621 C   0  0  1  0  0  0  0  0  0  0  0  0
    3.9074   -6.2551    1.1024 C   0  0  0  0  0  0  0  0  0  0  0  0
    4.6431   -5.5273    2.1883 C   0  0  2  0  0  0  0  0  0  0  0  0
    6.1489   -5.1186    1.9300 C   0  0  1  0  0  0  0  0  0  0  0  0
    7.1257   -5.9301    1.0592 C   0  0  0  0  0  0  0  0  0  0  0  0
    7.9922   -4.6804    0.9476 C   0  0  0  0  0  0  0  0  0  0  0  0
    6.7275   -3.8413    1.1970 C   0  0  1  0  0  0  0  0  0  0  0  0
    6.1944   -3.1068   -0.0838 C   0  0  1  0  0  0  0  0  0  0  0  0
    5.3042   -3.9348   -1.0235 C   0  0  0  0  0  0  0  0  0  0  0  0
    5.6742   -1.6702    0.1702 C   0  0  0  0  0  0  0  0  0  0  0  0
    6.4805   -0.7782    0.4393 O   0  0  0  0  0  0  0  0  0  0  0  0
    4.1753   -1.3361    0.0530 C   0  0  0  0  0  0  0  0  0  0  0  0
    3.3056   -1.2801    1.3614 C   0  0  1  0  0  0  0  0  0  0  0  0
    2.6118   -0.0595    1.2609 O   0  0  0  0  0  0  0  0  0  0  0  0
    2.4102   -2.5009    1.6934 C   0  0  2  0  0  0  0  0  0  0  0  0
    1.6218   -2.1740    2.8403 O   0  0  0  0  0  0  0  0  0  0  0  0
    2.5454   -1.5277    3.7027 C   0  0  0  0  0  0  0  0  0  0  0  0
    3.7473   -1.7026    2.7898 C   0  0  2  0  0  0  0  0  0  0  0  0
    4.9986   -1.0659    3.3909 C   0  0  0  0  0  0  0  0  0  0  0  0
    3.6992   -3.1524    2.2407 C   0  0  1  0  0  0  0  0  0  0  0  0
    3.8521   -4.4689    3.0619 C   0  0  2  0  0  0  0  0  0  0  0  0
    4.6920   -4.1781    4.3328 C   0  0  0  0  0  0  0  0  0  0  0  0
    2.4588   -5.0121    3.5462 C   0  0  1  0  0  0  0  0  0  0  0  0
    1.4469   -5.0529    2.5615 O   0  0  0  0  0  0  0  0  0  0  0  0
    3.5641   -6.9295    8.0567 H   0  0  0  0  0  0  0  0  0  0  0  0
    2.4502   -5.7478    8.7452 H   0  0  0  0  0  0  0  0  0  0  0  0
    3.8691   -5.2016    7.8453 H   0  0  0  0  0  0  0  0  0  0  0  0
    1.4559   -6.7080    4.3427 H   0  0  0  0  0  0  0  0  0  0  0  0
    2.3434   -7.7449    2.6171 H   0  0  0  0  0  0  0  0  0  0  0  0
    4.0918   -8.4682    6.1355 H   0  0  0  0  0  0  0  0  0  0  0  0
    5.2553   -8.0486    4.8981 H   0  0  0  0  0  0  0  0  0  0  0  0
    4.9848   -9.7288    5.3396 H   0  0  0  0  0  0  0  0  0  0  0  0
    1.7043   -8.6702    5.5220 H   0  0  0  0  0  0  0  0  0  0  0  0
    2.1647  -10.3255    5.2231 H   0  0  0  0  0  0  0  0  0  0  0  0
    1.2625   -9.4396    4.0046 H   0  0  0  0  0  0  0  0  0  0  0  0
    5.2373  -10.3037    1.5431 H   0  0  0  0  0  0  0  0  0  0  0  0
    3.8020   -9.4604    1.0192 H   0  0  0  0  0  0  0  0  0  0  0  0
    6.0122   -8.2692    2.8009 H   0  0  0  0  0  0  0  0  0  0  0  0
    5.7535   -8.0163    1.1003 H   0  0  0  0  0  0  0  0  0  0  0  0
    4.4514   -6.4711    0.1895 H   0  0  0  0  0  0  0  0  0  0  0  0
    2.8628   -6.0457    0.9097 H   0  0  0  0  0  0  0  0  0  0  0  0
    6.6371   -5.1422    2.9085 H   0  0  0  0  0  0  0  0  0  0  0  0
    7.6420   -6.7534    1.5595 H   0  0  0  0  0  0  0  0  0  0  0  0
    6.7285   -6.2292    0.0878 H   0  0  0  0  0  0  0  0  0  0  0  0
    8.7328   -4.6141    1.7525 H   0  0  0  0  0  0  0  0  0  0  0  0
    8.4578   -4.5628   -0.0336 H   0  0  0  0  0  0  0  0  0  0  0  0
    6.9777   -3.1116    1.9625 H   0  0  0  0  0  0  0  0  0  0  0  0
    7.0790   -2.9029   -0.6879 H   0  0  0  0  0  0  0  0  0  0  0  0
    5.1245   -3.4037   -1.9606 H   0  0  0  0  0  0  0  0  0  0  0  0
    4.3392   -4.1913   -0.5924 H   0  0  0  0  0  0  0  0  0  0  0  0
    5.7935   -4.8644   -1.2814 H   0  0  0  0  0  0  0  0  0  0  0  0
    4.1350   -0.3699   -0.4493 H   0  0  0  0  0  0  0  0  0  0  0  0
    3.7096   -2.0090   -0.6647 H   0  0  0  0  0  0  0  0  0  0  0  0
    1.9007   -0.2078    0.6427 H   0  0  0  0  0  0  0  0  0  0  0  0
    1.9118   -2.9803    0.8486 H   0  0  0  0  0  0  0  0  0  0  0  0
    2.2850   -0.4813    3.8792 H   0  0  0  0  0  0  0  0  0  0  0  0
    2.6424   -2.0414    4.6603 H   0  0  0  0  0  0  0  0  0  0  0  0
    5.0833   -1.2812    4.4547 H   0  0  0  0  0  0  0  0  0  0  0  0
    4.9742    0.0188    3.2792 H   0  0  0  0  0  0  0  0  0  0  0  0
    5.9098   -1.4197    2.9178 H   0  0  0  0  0  0  0  0  0  0  0  0
    4.2870   -3.3483    1.3841 H   0  0  0  0  0  0  0  0  0  0  0  0
    4.1111   -3.6561    5.0931 H   0  0  0  0  0  0  0  0  0  0  0  0
    5.5700   -3.5717    4.1259 H   0  0  0  0  0  0  0  0  0  0  0  0
    5.0618   -5.0968    4.7898 H   0  0  0  0  0  0  0  0  0  0  0  0
    2.0491   -4.3139    4.2744 H   0  0  0  0  0  0  0  0  0  0  0  0
    1.3117   -4.1578    2.2821 H   0  0  0  0  0  0  0  0  0  0  0  0
  1  2  1  0
  1 38  1  0
  1 39  1  0
  1 40  1  0
  2  3  2  0
  2  4  1  0
  4  5  1  0
  5 36  1  0
  5  6  1  0
  5 41  1  1
  6 14  1  0
  6  7  1  0
  6 42  1  6
  7  8  1  0
  7  9  1  0
  7 10  1  0
  8 43  1  0
  8 44  1  0
  8 45  1  0
  9 46  1  0
  9 47  1  0
  9 48  1  0
 10 11  2  0
 10 12  1  0
 12 13  1  0
 12 49  1  0
 12 50  1  0
 14 13  1  6
 13 51  1  0
 13 52  1  0
 14 16  1  0
 14 15  1  0
 16 15  1  6
 15 53  1  0
 15 54  1  0
 16 34  1  0
 16 17  1  0
 17 20  1  0
 17 18  1  0
 17 55  1  1
 18 19  1  0
 18 56  1  0
 18 57  1  0
 19 20  1  0
 19 58  1  0
 19 59  1  0
 20 21  1  0
 20 60  1  1
 21 22  1  0
 21 23  1  0
 21 61  1  6
 22 62  1  0
 22 63  1  0
 22 64  1  0
 23 24  2  0
 23 25  1  0
 25 26  1  0
 25 65  1  0
 25 66  1  0
 26 31  1  0
 26 27  1  1
 26 28  1  0
 27 67  1  0
 28 33  1  0
 28 29  1  0
 28 68  1  6
 29 30  1  0
 30 31  1  0
 30 69  1  0
 30 70  1  0
 31 32  1  1
 31 33  1  0
 32 71  1  0
 32 72  1  0
 32 73  1  0
 33 34  1  0
 33 74  1  6
 34 35  1  1
 34 36  1  0
 35 75  1  0
 35 76  1  0
 35 77  1  0
 36 37  1  0
 36 78  1  1
 37 79  1  0
M  END
>  <i_m_ct_stereo_status>  (203) 
1

>  <s_m_source_file>  (203) 
/var/tmp/pbs.5076255.sched01/tmpavn81tjv/78c0r2i372.sdf

>  <i_m_source_file_index>  (203) 
2

>  <i_lp_mmshare_version>  (203) 
48012

>  <i_f3d_flags>  (203) 
0

>  <s_epik_input>  (203) 
W0NIMl0xW0NIMl1DKD1PKUMoW0NIM10pKFtDSDNdKVtDQEhdMltDQEBIXShPQyg9TylbQ0gzXSlbQ0BIXShbT0hdKVtDQF0zKFtDSDNdKVtDQEBIXShbQ0BAXTQoW0NIMl1PNSlbQ0gzXSlbQ0BASF01W0NAXTQoW09IXSlbQ0gyXUMoPU8pW0NASF0oW0NIM10pW0NASF0oW0NIMl1bQ0gyXTYpW0NASF02W0NAXTMoW0NAQF0xMjcpW0NIMl03

>  <s_epik_cmdline>  (203) 
J2VwaWtfcHl0aG9uJywgJy1waHQnLCAnMi4wJywgJy1waCcsICc3LjAnLCAnLXRuJywgJzgnLCAnLW1hJywgJzIwMCcsICctaW1hZScsICc8aW5maWxlLm1hZT4nLCAnLW9tYWUnLCAnPG91dGZpbGUubWFlPic=

>  <r_lp_tautomer_probability>  (203) 
1

>  <r_epik_Ionization_Penalty>  (203) 
1.41835e-07

>  <r_epik_Ionization_Penalty_Charging>  (203) 
0

>  <r_epik_Ionization_Penalty_Neutral>  (203) 
1.41835e-07

>  <r_epik_State_Penalty>  (203) 
-0

>  <r_epik_Charging_Adjusted_Penalty>  (203) 
0

>  <i_epik_Tot_Q>  (203) 
0

>  <i_epik_Tot_abs_Q>  (203) 
0

>  <s_epik_Chemistry_Notes>  (203) 
This compound has an ester and may undergo hydrolysis at high or low pH.

>  <s_lp_Force_Field>  (203) 
OPLS3e

>  <r_lp_Energy>  (203) 
127.136

>  <b_lp_Chiralities_Consistent>  (203) 
1

>  <s_lp_Variant>  (203) 
63:0-1

>  <s_i_glide_gridfile>  (203) 
pfpi4k_grid

>  <i_i_glide_lignum>  (203) 
2

>  <i_i_glide_rotatable_bonds>  (203) 
4

>  <r_i_docking_score>  (203) 
-2.22316

>  <r_i_glide_ligand_efficiency>  (203) 
-0.0600855

>  <r_i_glide_ligand_efficiency_sa>  (203) 
-0.200218

>  <r_i_glide_ligand_efficiency_ln>  (203) 
-0.482152

>  <r_i_glide_gscore>  (203) 
-2.22316

>  <r_i_glide_lipo>  (203) 
-0.663735

>  <r_i_glide_hbond>  (203) 
0

>  <r_i_glide_metal>  (203) 
-0

>  <r_i_glide_rewards>  (203) 
-0.0388494

>  <r_i_glide_evdw>  (203) 
-23.3428

>  <r_i_glide_ecoul>  (203) 
-2.67519

>  <r_i_glide_erotb>  (203) 
0.0774508

>  <r_i_glide_esite>  (203) 
-0.0296135

>  <r_i_glide_emodel>  (203) 
-29.5907

>  <r_i_glide_energy>  (203) 
-26.018

>  <r_i_glide_einternal>  (203) 
0.539229

>  <r_i_glide_intrahb_reward>  (203) 
-0

>  <i_i_glide_confnum>  (203) 
3

>  <i_i_glide_posenum>  (203) 
2

>  <r_i_glide_eff_state_penalty>  (203) 
0

>  <ligand_id>  (203) 
63

>  <original_smiles>  (203) 
CC(=O)OC1C2C(C)(C)C(=O)CCC23CC32C3CCC3C(C)C(=O)CC3(O)C4OCC3(C)C4C2(C)C1O

>  <smiles>  (203) 
[H]OC1([H])C([H])(OC(=O)C([H])([H])[H])C2([H])C(C([H])([H])[H])(C([H])([H])[H])C(=O)C([H])([H])C([H])([H])C23C([H])([H])C32C3([H])C([H])([H])C([H])([H])C3([H])C([H])(C([H])([H])[H])C(=O)C([H])([H])C3(O[H])C4([H])OC([H])([H])C3(C([H])([H])[H])C4([H])C12C([H])([H])[H]

$$$$
63:0:1
     RDKit          3D

 79 85  0  0  1  0  0  0  0  0999 V2000
    2.8810   -5.5600    8.3133 C   0  0  0  0  0  0  0  0  0  0  0  0
    2.0359   -5.6074    7.0484 C   0  0  0  0  0  0  0  0  0  0  0  0
    0.8477   -5.2613    7.0519 O   0  0  0  0  0  0  0  0  0  0  0  0
    2.7245   -6.0553    5.9789 O   0  0  0  0  0  0  0  0  0  0  0  0
    2.1211   -6.2098    4.6920 C   0  0  2  0  0  0  0  0  0  0  0  0
    2.5869   -7.4785    3.9010 C   0  0  2  0  0  0  0  0  0  0  0  0
    2.6574   -8.7831    4.7904 C   0  0  0  0  0  0  0  0  0  0  0  0
    3.8009   -8.7331    5.8374 C   0  0  0  0  0  0  0  0  0  0  0  0
    1.3084   -9.0072    5.5252 C   0  0  0  0  0  0  0  0  0  0  0  0
    2.8950  -10.0147    3.8957 C   0  0  0  0  0  0  0  0  0  0  0  0
    2.5556  -11.1428    4.2336 O   0  0  0  0  0  0  0  0  0  0  0  0
    3.6254   -9.8008    2.5857 C   0  0  0  0  0  0  0  0  0  0  0  0
    4.5187   -8.5626    2.6519 C   0  0  0  0  0  0  0  0  0  0  0  0
    3.7476   -7.2571    2.8769 C   0  0  1  0  0  0  0  0  0  0  0  0
    3.4332   -6.5454    1.5589 C   0  0  0  0  0  0  0  0  0  0  0  0
    4.2912   -5.8276    2.5554 C   0  0  2  0  0  0  0  0  0  0  0  0
    5.8273   -5.6552    2.2315 C   0  0  1  0  0  0  0  0  0  0  0  0
    6.6572   -6.6706    1.4201 C   0  0  0  0  0  0  0  0  0  0  0  0
    7.6859   -5.5767    1.1633 C   0  0  0  0  0  0  0  0  0  0  0  0
    6.5549   -4.5495    1.3545 C   0  0  1  0  0  0  0  0  0  0  0  0
    6.0867   -3.8678    0.0227 C   0  0  1  0  0  0  0  0  0  0  0  0
    5.0623   -4.6581   -0.8107 C   0  0  0  0  0  0  0  0  0  0  0  0
    5.7738   -2.3526    0.1422 C   0  0  0  0  0  0  0  0  0  0  0  0
    6.7047   -1.5489    0.2783 O   0  0  0  0  0  0  0  0  0  0  0  0
    4.3306   -1.8379    0.0213 C   0  0  0  0  0  0  0  0  0  0  0  0
    3.5198   -1.5423    1.3308 C   0  0  1  0  0  0  0  0  0  0  0  0
    2.9901   -0.2615    1.1123 O   0  0  0  0  0  0  0  0  0  0  0  0
    2.4840   -2.5887    1.8092 C   0  0  2  0  0  0  0  0  0  0  0  0
    1.7817   -2.0495    2.9315 O   0  0  0  0  0  0  0  0  0  0  0  0
    2.8119   -1.4552    3.7054 C   0  0  0  0  0  0  0  0  0  0  0  0
    3.9446   -1.8779    2.7915 C   0  0  2  0  0  0  0  0  0  0  0  0
    5.2843   -1.3649    3.3060 C   0  0  0  0  0  0  0  0  0  0  0  0
    3.6862   -3.3539    2.3954 C   0  0  1  0  0  0  0  0  0  0  0  0
    3.6870   -4.5984    3.3352 C   0  0  2  0  0  0  0  0  0  0  0  0
    4.6002   -4.3083    4.5517 C   0  0  0  0  0  0  0  0  0  0  0  0
    2.2531   -4.8967    3.9025 C   0  0  1  0  0  0  0  0  0  0  0  0
    1.2150   -4.9090    2.9443 O   0  0  0  0  0  0  0  0  0  0  0  0
    3.2874   -6.5467    8.5332 H   0  0  0  0  0  0  0  0  0  0  0  0
    2.2889   -5.2398    9.1702 H   0  0  0  0  0  0  0  0  0  0  0  0
    3.7120   -4.8653    8.1891 H   0  0  0  0  0  0  0  0  0  0  0  0
    1.0524   -6.3582    4.8722 H   0  0  0  0  0  0  0  0  0  0  0  0
    1.7344   -7.6638    3.2450 H   0  0  0  0  0  0  0  0  0  0  0  0
    3.4861   -8.2888    6.7786 H   0  0  0  0  0  0  0  0  0  0  0  0
    4.6513   -8.1495    5.4820 H   0  0  0  0  0  0  0  0  0  0  0  0
    4.1719   -9.7292    6.0899 H   0  0  0  0  0  0  0  0  0  0  0  0
    1.0729   -8.2178    6.2385 H   0  0  0  0  0  0  0  0  0  0  0  0
    1.2981   -9.9433    6.0912 H   0  0  0  0  0  0  0  0  0  0  0  0
    0.4809   -9.0590    4.8138 H   0  0  0  0  0  0  0  0  0  0  0  0
    4.2161  -10.6859    2.3598 H   0  0  0  0  0  0  0  0  0  0  0  0
    2.8927   -9.7034    1.7879 H   0  0  0  0  0  0  0  0  0  0  0  0
    5.3007   -8.6675    3.4031 H   0  0  0  0  0  0  0  0  0  0  0  0
    5.0167   -8.5416    1.6922 H   0  0  0  0  0  0  0  0  0  0  0  0
    3.9122   -6.9249    0.6623 H   0  0  0  0  0  0  0  0  0  0  0  0
    2.4187   -6.2195    1.3701 H   0  0  0  0  0  0  0  0  0  0  0  0
    6.3550   -5.6582    3.1923 H   0  0  0  0  0  0  0  0  0  0  0  0
    7.0740   -7.5107    1.9835 H   0  0  0  0  0  0  0  0  0  0  0  0
    6.1710   -6.9951    0.4999 H   0  0  0  0  0  0  0  0  0  0  0  0
    8.4550   -5.5429    1.9438 H   0  0  0  0  0  0  0  0  0  0  0  0
    8.1230   -5.6230    0.1645 H   0  0  0  0  0  0  0  0  0  0  0  0
    6.9527   -3.8025    2.0416 H   0  0  0  0  0  0  0  0  0  0  0  0
    6.9669   -3.8460   -0.6181 H   0  0  0  0  0  0  0  0  0  0  0  0
    4.9151   -4.1948   -1.7896 H   0  0  0  0  0  0  0  0  0  0  0  0
    4.0868   -4.7418   -0.3387 H   0  0  0  0  0  0  0  0  0  0  0  0
    5.4085   -5.6671   -1.0070 H   0  0  0  0  0  0  0  0  0  0  0  0
    4.3939   -0.9253   -0.5729 H   0  0  0  0  0  0  0  0  0  0  0  0
    3.7563   -2.5068   -0.6111 H   0  0  0  0  0  0  0  0  0  0  0  0
    2.1985   -0.3663    0.5842 H   0  0  0  0  0  0  0  0  0  0  0  0
    1.9318   -3.0878    1.0172 H   0  0  0  0  0  0  0  0  0  0  0  0
    2.6938   -0.3734    3.7896 H   0  0  0  0  0  0  0  0  0  0  0  0
    2.8646   -1.8846    4.7081 H   0  0  0  0  0  0  0  0  0  0  0  0
    5.3792   -1.4922    4.3825 H   0  0  0  0  0  0  0  0  0  0  0  0
    5.4106   -0.3039    3.0885 H   0  0  0  0  0  0  0  0  0  0  0  0
    6.1236   -1.8874    2.8484 H   0  0  0  0  0  0  0  0  0  0  0  0
    4.2146   -3.7052    1.5459 H   0  0  0  0  0  0  0  0  0  0  0  0
    4.1197   -3.6409    5.2715 H   0  0  0  0  0  0  0  0  0  0  0  0
    5.5456   -3.8492    4.2700 H   0  0  0  0  0  0  0  0  0  0  0  0
    4.8565   -5.2219    5.0910 H   0  0  0  0  0  0  0  0  0  0  0  0
    1.9602   -4.0867    4.5698 H   0  0  0  0  0  0  0  0  0  0  0  0
    1.1464   -4.0230    2.6137 H   0  0  0  0  0  0  0  0  0  0  0  0
  1  2  1  0
  1 38  1  0
  1 39  1  0
  1 40  1  0
  2  3  2  0
  2  4  1  0
  4  5  1  0
  5 36  1  0
  5  6  1  0
  5 41  1  1
  6 14  1  0
  6  7  1  0
  6 42  1  6
  7  8  1  0
  7  9  1  0
  7 10  1  0
  8 43  1  0
  8 44  1  0
  8 45  1  0
  9 46  1  0
  9 47  1  0
  9 48  1  0
 10 11  2  0
 10 12  1  0
 12 13  1  0
 12 49  1  0
 12 50  1  0
 14 13  1  6
 13 51  1  0
 13 52  1  0
 14 16  1  0
 14 15  1  0
 16 15  1  6
 15 53  1  0
 15 54  1  0
 16 34  1  0
 16 17  1  0
 17 20  1  0
 17 18  1  0
 17 55  1  1
 18 19  1  0
 18 56  1  0
 18 57  1  0
 19 20  1  0
 19 58  1  0
 19 59  1  0
 20 21  1  0
 20 60  1  1
 21 22  1  0
 21 23  1  0
 21 61  1  6
 22 62  1  0
 22 63  1  0
 22 64  1  0
 23 24  2  0
 23 25  1  0
 25 26  1  0
 25 65  1  0
 25 66  1  0
 26 31  1  0
 26 27  1  1
 26 28  1  0
 27 67  1  0
 28 33  1  0
 28 29  1  0
 28 68  1  6
 29 30  1  0
 30 31  1  0
 30 69  1  0
 30 70  1  0
 31 32  1  1
 31 33  1  0
 32 71  1  0
 32 72  1  0
 32 73  1  0
 33 34  1  0
 33 74  1  6
 34 35  1  1
 34 36  1  0
 35 75  1  0
 35 76  1  0
 35 77  1  0
 36 37  1  0
 36 78  1  1
 37 79  1  0
M  END
>  <i_m_ct_stereo_status>  (204) 
1

>  <s_m_source_file>  (204) 
/var/tmp/pbs.5076255.sched01/tmpavn81tjv/78c0r2i372.sdf

>  <i_m_source_file_index>  (204) 
2

>  <i_lp_mmshare_version>  (204) 
48012

>  <i_f3d_flags>  (204) 
0

>  <s_epik_input>  (204) 
W0NIMl0xW0NIMl1DKD1PKUMoW0NIM10pKFtDSDNdKVtDQEhdMltDQEBIXShPQyg9TylbQ0gzXSlbQ0BIXShbT0hdKVtDQF0zKFtDSDNdKVtDQEBIXShbQ0BAXTQoW0NIMl1PNSlbQ0gzXSlbQ0BASF01W0NAXTQoW09IXSlbQ0gyXUMoPU8pW0NASF0oW0NIM10pW0NASF0oW0NIMl1bQ0gyXTYpW0NASF02W0NAXTMoW0NAQF0xMjcpW0NIMl03

>  <s_epik_cmdline>  (204) 
J2VwaWtfcHl0aG9uJywgJy1waHQnLCAnMi4wJywgJy1waCcsICc3LjAnLCAnLXRuJywgJzgnLCAnLW1hJywgJzIwMCcsICctaW1hZScsICc8aW5maWxlLm1hZT4nLCAnLW9tYWUnLCAnPG91dGZpbGUubWFlPic=

>  <r_lp_tautomer_probability>  (204) 
1

>  <r_epik_Ionization_Penalty>  (204) 
1.41835e-07

>  <r_epik_Ionization_Penalty_Charging>  (204) 
0

>  <r_epik_Ionization_Penalty_Neutral>  (204) 
1.41835e-07

>  <r_epik_State_Penalty>  (204) 
-0

>  <r_epik_Charging_Adjusted_Penalty>  (204) 
0

>  <i_epik_Tot_Q>  (204) 
0

>  <i_epik_Tot_abs_Q>  (204) 
0

>  <s_epik_Chemistry_Notes>  (204) 
This compound has an ester and may undergo hydrolysis at high or low pH.

>  <s_lp_Force_Field>  (204) 
OPLS3e

>  <r_lp_Energy>  (204) 
127.136

>  <b_lp_Chiralities_Consistent>  (204) 
1

>  <s_lp_Variant>  (204) 
63:0-1

>  <s_i_glide_gridfile>  (204) 
pfpi4k_grid

>  <i_i_glide_lignum>  (204) 
2

>  <i_i_glide_rotatable_bonds>  (204) 
4

>  <r_i_docking_score>  (204) 
-2.1069

>  <r_i_glide_ligand_efficiency>  (204) 
-0.0569432

>  <r_i_glide_ligand_efficiency_sa>  (204) 
-0.189747

>  <r_i_glide_ligand_efficiency_ln>  (204) 
-0.456937

>  <r_i_glide_gscore>  (204) 
-2.1069

>  <r_i_glide_lipo>  (204) 
-0.502495

>  <r_i_glide_hbond>  (204) 
-0.00644364

>  <r_i_glide_metal>  (204) 
-0

>  <r_i_glide_rewards>  (204) 
-0.0277195

>  <r_i_glide_evdw>  (204) 
-22.659

>  <r_i_glide_ecoul>  (204) 
-3.36113

>  <r_i_glide_erotb>  (204) 
0.0774508

>  <r_i_glide_esite>  (204) 
-0.0105715

>  <r_i_glide_emodel>  (204) 
-29.3256

>  <r_i_glide_energy>  (204) 
-26.0201

>  <r_i_glide_einternal>  (204) 
0.559616

>  <r_i_glide_intrahb_reward>  (204) 
-0

>  <i_i_glide_confnum>  (204) 
3

>  <i_i_glide_posenum>  (204) 
4

>  <r_i_glide_eff_state_penalty>  (204) 
0

>  <ligand_id>  (204) 
63

>  <original_smiles>  (204) 
CC(=O)OC1C2C(C)(C)C(=O)CCC23CC32C3CCC3C(C)C(=O)CC3(O)C4OCC3(C)C4C2(C)C1O

>  <smiles>  (204) 
[H]OC1([H])C([H])(OC(=O)C([H])([H])[H])C2([H])C(C([H])([H])[H])(C([H])([H])[H])C(=O)C([H])([H])C([H])([H])C23C([H])([H])C32C3([H])C([H])([H])C([H])([H])C3([H])C([H])(C([H])([H])[H])C(=O)C([H])([H])C3(O[H])C4([H])OC([H])([H])C3(C([H])([H])[H])C4([H])C12C([H])([H])[H]

$$$$
63:0:2
     RDKit          3D

 79 85  0  0  1  0  0  0  0  0999 V2000
    3.6071   -5.8762    8.0782 C   0  0  0  0  0  0  0  0  0  0  0  0
    2.7538   -6.0141    6.8223 C   0  0  0  0  0  0  0  0  0  0  0  0
    1.5404   -5.8130    6.8429 O   0  0  0  0  0  0  0  0  0  0  0  0
    3.4831   -6.3588    5.7391 O   0  0  0  0  0  0  0  0  0  0  0  0
    2.8807   -6.5649    4.4576 C   0  0  2  0  0  0  0  0  0  0  0  0
    3.5832   -7.6591    3.5840 C   0  0  2  0  0  0  0  0  0  0  0  0
    3.9665   -8.9643    4.3870 C   0  0  0  0  0  0  0  0  0  0  0  0
    5.1086   -8.7280    5.4127 C   0  0  0  0  0  0  0  0  0  0  0  0
    2.7219   -9.5208    5.1281 C   0  0  0  0  0  0  0  0  0  0  0  0
    4.4451  -10.0661    3.4175 C   0  0  0  0  0  0  0  0  0  0  0  0
    4.3869  -11.2625    3.7033 O   0  0  0  0  0  0  0  0  0  0  0  0
    5.0644   -9.6258    2.1044 C   0  0  0  0  0  0  0  0  0  0  0  0
    5.6710   -8.2284    2.2320 C   0  0  0  0  0  0  0  0  0  0  0  0
    4.6408   -7.1360    2.5537 C   0  0  1  0  0  0  0  0  0  0  0  0
    4.1412   -6.4426    1.2823 C   0  0  0  0  0  0  0  0  0  0  0  0
    4.8564   -5.6106    2.3029 C   0  0  2  0  0  0  0  0  0  0  0  0
    6.3107   -5.0921    1.9599 C   0  0  1  0  0  0  0  0  0  0  0  0
    7.3172   -5.8549    1.0747 C   0  0  0  0  0  0  0  0  0  0  0  0
    8.0696   -4.5452    0.8745 C   0  0  0  0  0  0  0  0  0  0  0  0
    6.7521   -3.8023    1.1480 C   0  0  1  0  0  0  0  0  0  0  0  0
    6.0999   -3.1665   -0.1282 C   0  0  1  0  0  0  0  0  0  0  0  0
    5.2381   -4.1082   -0.9880 C   0  0  0  0  0  0  0  0  0  0  0  0
    5.4772   -1.7616    0.0903 C   0  0  0  0  0  0  0  0  0  0  0  0
    6.2137   -0.7976    0.2739 O   0  0  0  0  0  0  0  0  0  0  0  0
    3.9413   -1.5632    0.0373 C   0  0  0  0  0  0  0  0  0  0  0  0
    3.1326   -1.5316    1.3802 C   0  0  1  0  0  0  0  0  0  0  0  0
    2.3244   -0.3711    1.2811 O   0  0  0  0  0  0  0  0  0  0  0  0
    2.3605   -2.8058    1.8071 C   0  0  2  0  0  0  0  0  0  0  0  0
    1.5968   -2.4663    2.9661 O   0  0  0  0  0  0  0  0  0  0  0  0
    2.5034   -1.7268    3.7653 C   0  0  0  0  0  0  0  0  0  0  0  0
    3.6716   -1.8480    2.8021 C   0  0  2  0  0  0  0  0  0  0  0  0
    4.8934   -1.0842    3.3168 C   0  0  0  0  0  0  0  0  0  0  0  0
    3.7238   -3.3221    2.3160 C   0  0  1  0  0  0  0  0  0  0  0  0
    4.0166   -4.5862    3.1702 C   0  0  2  0  0  0  0  0  0  0  0  0
    4.8854   -4.1743    4.3916 C   0  0  0  0  0  0  0  0  0  0  0  0
    2.6877   -5.2195    3.7352 C   0  0  1  0  0  0  0  0  0  0  0  0
    1.6372   -5.4369    2.8051 O   0  0  0  0  0  0  0  0  0  0  0  0
    4.1289   -6.8096    8.2864 H   0  0  0  0  0  0  0  0  0  0  0  0
    2.9928   -5.6290    8.9431 H   0  0  0  0  0  0  0  0  0  0  0  0
    4.3473   -5.0878    7.9475 H   0  0  0  0  0  0  0  0  0  0  0  0
    1.8827   -6.9567    4.6617 H   0  0  0  0  0  0  0  0  0  0  0  0
    2.7774   -7.9971    2.9305 H   0  0  0  0  0  0  0  0  0  0  0  0
    4.7305   -8.4165    6.3847 H   0  0  0  0  0  0  0  0  0  0  0  0
    5.7996   -7.9551    5.0785 H   0  0  0  0  0  0  0  0  0  0  0  0
    5.6950   -9.6309    5.5965 H   0  0  0  0  0  0  0  0  0  0  0  0
    2.3449   -8.8418    5.8911 H   0  0  0  0  0  0  0  0  0  0  0  0
    2.9289  -10.4657    5.6360 H   0  0  0  0  0  0  0  0  0  0  0  0
    1.9049   -9.7112    4.4287 H   0  0  0  0  0  0  0  0  0  0  0  0
    5.8229  -10.3501    1.8123 H   0  0  0  0  0  0  0  0  0  0  0  0
    4.2982   -9.6478    1.3296 H   0  0  0  0  0  0  0  0  0  0  0  0
    6.4816   -8.2032    2.9577 H   0  0  0  0  0  0  0  0  0  0  0  0
    6.1268   -8.0440    1.2638 H   0  0  0  0  0  0  0  0  0  0  0  0
    4.6676   -6.6526    0.3570 H   0  0  0  0  0  0  0  0  0  0  0  0
    3.0780   -6.3250    1.1241 H   0  0  0  0  0  0  0  0  0  0  0  0
    6.8475   -5.0477    2.9092 H   0  0  0  0  0  0  0  0  0  0  0  0
    7.9229   -6.6080    1.5807 H   0  0  0  0  0  0  0  0  0  0  0  0
    6.9026   -6.2262    0.1395 H   0  0  0  0  0  0  0  0  0  0  0  0
    8.8352   -4.3817    1.6397 H   0  0  0  0  0  0  0  0  0  0  0  0
    8.4757   -4.4279   -0.1335 H   0  0  0  0  0  0  0  0  0  0  0  0
    6.9893   -3.0246    1.8677 H   0  0  0  0  0  0  0  0  0  0  0  0
    6.9361   -2.9198   -0.7871 H   0  0  0  0  0  0  0  0  0  0  0  0
    4.9776   -3.6401   -1.9400 H   0  0  0  0  0  0  0  0  0  0  0  0
    4.3168   -4.4197   -0.5023 H   0  0  0  0  0  0  0  0  0  0  0  0
    5.7870   -5.0103   -1.2144 H   0  0  0  0  0  0  0  0  0  0  0  0
    3.7943   -0.6335   -0.5075 H   0  0  0  0  0  0  0  0  0  0  0  0
    3.5129   -2.3085   -0.6301 H   0  0  0  0  0  0  0  0  0  0  0  0
    1.6830   -0.5512    0.5936 H   0  0  0  0  0  0  0  0  0  0  0  0
    1.8785   -3.3791    1.0140 H   0  0  0  0  0  0  0  0  0  0  0  0
    2.1688   -0.6987    3.9205 H   0  0  0  0  0  0  0  0  0  0  0  0
    2.6786   -2.2035    4.7298 H   0  0  0  0  0  0  0  0  0  0  0  0
    5.0392   -1.2451    4.3837 H   0  0  0  0  0  0  0  0  0  0  0  0
    4.7713   -0.0117    3.1605 H   0  0  0  0  0  0  0  0  0  0  0  0
    5.8114   -1.3868    2.8182 H   0  0  0  0  0  0  0  0  0  0  0  0
    4.2873   -3.4995    1.4393 H   0  0  0  0  0  0  0  0  0  0  0  0
    4.2965   -3.6711    5.1573 H   0  0  0  0  0  0  0  0  0  0  0  0
    5.6985   -3.5048    4.1216 H   0  0  0  0  0  0  0  0  0  0  0  0
    5.3534   -5.0376    4.8664 H   0  0  0  0  0  0  0  0  0  0  0  0
    2.2558   -4.5201    4.4488 H   0  0  0  0  0  0  0  0  0  0  0  0
    1.9066   -6.1139    2.2089 H   0  0  0  0  0  0  0  0  0  0  0  0
  1  2  1  0
  1 38  1  0
  1 39  1  0
  1 40  1  0
  2  3  2  0
  2  4  1  0
  4  5  1  0
  5 36  1  0
  5  6  1  0
  5 41  1  1
  6 14  1  0
  6  7  1  0
  6 42  1  6
  7  8  1  0
  7  9  1  0
  7 10  1  0
  8 43  1  0
  8 44  1  0
  8 45  1  0
  9 46  1  0
  9 47  1  0
  9 48  1  0
 10 11  2  0
 10 12  1  0
 12 13  1  0
 12 49  1  0
 12 50  1  0
 14 13  1  6
 13 51  1  0
 13 52  1  0
 14 16  1  0
 14 15  1  0
 16 15  1  6
 15 53  1  0
 15 54  1  0
 16 34  1  0
 16 17  1  0
 17 20  1  0
 17 18  1  0
 17 55  1  1
 18 19  1  0
 18 56  1  0
 18 57  1  0
 19 20  1  0
 19 58  1  0
 19 59  1  0
 20 21  1  0
 20 60  1  1
 21 22  1  0
 21 23  1  0
 21 61  1  6
 22 62  1  0
 22 63  1  0
 22 64  1  0
 23 24  2  0
 23 25  1  0
 25 26  1  0
 25 65  1  0
 25 66  1  0
 26 31  1  0
 26 27  1  1
 26 28  1  0
 27 67  1  0
 28 33  1  0
 28 29  1  0
 28 68  1  6
 29 30  1  0
 30 31  1  0
 30 69  1  0
 30 70  1  0
 31 32  1  1
 31 33  1  0
 32 71  1  0
 32 72  1  0
 32 73  1  0
 33 34  1  0
 33 74  1  6
 34 35  1  1
 34 36  1  0
 35 75  1  0
 35 76  1  0
 35 77  1  0
 36 37  1  0
 36 78  1  1
 37 79  1  0
M  END
>  <i_m_ct_stereo_status>  (205) 
1

>  <s_m_source_file>  (205) 
/var/tmp/pbs.5076255.sched01/tmpavn81tjv/78c0r2i372.sdf

>  <i_m_source_file_index>  (205) 
2

>  <i_lp_mmshare_version>  (205) 
48012

>  <i_f3d_flags>  (205) 
0

>  <s_epik_input>  (205) 
W0NIMl0xW0NIMl1DKD1PKUMoW0NIM10pKFtDSDNdKVtDQEhdMltDQEBIXShPQyg9TylbQ0gzXSlbQ0BIXShbT0hdKVtDQF0zKFtDSDNdKVtDQEBIXShbQ0BAXTQoW0NIMl1PNSlbQ0gzXSlbQ0BASF01W0NAXTQoW09IXSlbQ0gyXUMoPU8pW0NASF0oW0NIM10pW0NASF0oW0NIMl1bQ0gyXTYpW0NASF02W0NAXTMoW0NAQF0xMjcpW0NIMl03

>  <s_epik_cmdline>  (205) 
J2VwaWtfcHl0aG9uJywgJy1waHQnLCAnMi4wJywgJy1waCcsICc3LjAnLCAnLXRuJywgJzgnLCAnLW1hJywgJzIwMCcsICctaW1hZScsICc8aW5maWxlLm1hZT4nLCAnLW9tYWUnLCAnPG91dGZpbGUubWFlPic=

>  <r_lp_tautomer_probability>  (205) 
1

>  <r_epik_Ionization_Penalty>  (205) 
1.41835e-07

>  <r_epik_Ionization_Penalty_Charging>  (205) 
0

>  <r_epik_Ionization_Penalty_Neutral>  (205) 
1.41835e-07

>  <r_epik_State_Penalty>  (205) 
-0

>  <r_epik_Charging_Adjusted_Penalty>  (205) 
0

>  <i_epik_Tot_Q>  (205) 
0

>  <i_epik_Tot_abs_Q>  (205) 
0

>  <s_epik_Chemistry_Notes>  (205) 
This compound has an ester and may undergo hydrolysis at high or low pH.

>  <s_lp_Force_Field>  (205) 
OPLS3e

>  <r_lp_Energy>  (205) 
127.136

>  <b_lp_Chiralities_Consistent>  (205) 
1

>  <s_lp_Variant>  (205) 
63:0-1

>  <s_i_glide_gridfile>  (205) 
pfpi4k_grid

>  <i_i_glide_lignum>  (205) 
2

>  <i_i_glide_rotatable_bonds>  (205) 
4

>  <r_i_docking_score>  (205) 
-1.98339

>  <r_i_glide_ligand_efficiency>  (205) 
-0.053605

>  <r_i_glide_ligand_efficiency_sa>  (205) 
-0.178624

>  <r_i_glide_ligand_efficiency_ln>  (205) 
-0.43015

>  <r_i_glide_gscore>  (205) 
-1.98339

>  <r_i_glide_lipo>  (205) 
-0.641417

>  <r_i_glide_hbond>  (205) 
0

>  <r_i_glide_metal>  (205) 
-0

>  <r_i_glide_rewards>  (205) 
-0.0158848

>  <r_i_glide_evdw>  (205) 
-21.7186

>  <r_i_glide_ecoul>  (205) 
-2.00952

>  <r_i_glide_erotb>  (205) 
0.0774508

>  <r_i_glide_esite>  (205) 
-0.0161767

>  <r_i_glide_emodel>  (205) 
-27.0037

>  <r_i_glide_energy>  (205) 
-23.7281

>  <r_i_glide_einternal>  (205) 
0.238773

>  <r_i_glide_intrahb_reward>  (205) 
-0

>  <i_i_glide_confnum>  (205) 
1

>  <i_i_glide_posenum>  (205) 
17

>  <r_i_glide_eff_state_penalty>  (205) 
0

>  <ligand_id>  (205) 
63

>  <original_smiles>  (205) 
CC(=O)OC1C2C(C)(C)C(=O)CCC23CC32C3CCC3C(C)C(=O)CC3(O)C4OCC3(C)C4C2(C)C1O

>  <smiles>  (205) 
[H]OC1([H])C([H])(OC(=O)C([H])([H])[H])C2([H])C(C([H])([H])[H])(C([H])([H])[H])C(=O)C([H])([H])C([H])([H])C23C([H])([H])C32C3([H])C([H])([H])C([H])([H])C3([H])C([H])(C([H])([H])[H])C(=O)C([H])([H])C3(O[H])C4([H])OC([H])([H])C3(C([H])([H])[H])C4([H])C12C([H])([H])[H]

$$$$
63:1:0
     RDKit          3D

 79 85  0  0  1  0  0  0  0  0999 V2000
    1.5045   -4.4212    6.6455 C   0  0  0  0  0  0  0  0  0  0  0  0
    0.6884   -3.2711    6.0709 C   0  0  0  0  0  0  0  0  0  0  0  0
   -0.5379   -3.3441    5.9835 O   0  0  0  0  0  0  0  0  0  0  0  0
    1.4600   -2.2233    5.6973 O   0  0  0  0  0  0  0  0  0  0  0  0
    0.9136   -1.0858    5.0305 C   0  0  2  0  0  0  0  0  0  0  0  0
    1.9848   -0.4062    4.1398 C   0  0  2  0  0  0  0  0  0  0  0  0
    2.7384   -1.2440    3.0245 C   0  0  0  0  0  0  0  0  0  0  0  0
    2.9899   -2.7278    3.3702 C   0  0  0  0  0  0  0  0  0  0  0  0
    1.9233   -1.2209    1.7075 C   0  0  0  0  0  0  0  0  0  0  0  0
    4.1261   -0.6293    2.7867 C   0  0  0  0  0  0  0  0  0  0  0  0
    4.5501   -0.3409    1.6678 O   0  0  0  0  0  0  0  0  0  0  0  0
    5.0024   -0.4411    4.0192 C   0  0  0  0  0  0  0  0  0  0  0  0
    4.1758   -0.0917    5.2756 C   0  0  0  0  0  0  0  0  0  0  0  0
    2.8420    0.5781    4.9394 C   0  0  1  0  0  0  0  0  0  0  0  0
    2.9029    1.9496    4.4337 C   0  0  0  0  0  0  0  0  0  0  0  0
    2.1258    1.7263    5.7357 C   0  0  2  0  0  0  0  0  0  0  0  0
    2.7726    2.4831    6.9344 C   0  0  1  0  0  0  0  0  0  0  0  0
    4.2816    2.5782    7.2349 C   0  0  0  0  0  0  0  0  0  0  0  0
    3.9741    3.8475    8.0323 C   0  0  0  0  0  0  0  0  0  0  0  0
    2.7839    4.0406    7.0767 C   0  0  1  0  0  0  0  0  0  0  0  0
    2.9187    5.0905    5.9119 C   0  0  1  0  0  0  0  0  0  0  0  0
    4.3349    5.2556    5.3261 C   0  0  0  0  0  0  0  0  0  0  0  0
    1.8827    4.9159    4.7947 C   0  0  0  0  0  0  0  0  0  0  0  0
    2.1888    5.0160    3.6066 O   0  0  0  0  0  0  0  0  0  0  0  0
    0.4418    4.6809    5.2361 C   0  0  0  0  0  0  0  0  0  0  0  0
   -0.5007    4.0028    4.2220 C   0  0  1  0  0  0  0  0  0  0  0  0
   -0.9379    5.0591    3.4085 O   0  0  0  0  0  0  0  0  0  0  0  0
   -0.1843    2.7171    3.4424 C   0  0  2  0  0  0  0  0  0  0  0  0
   -1.3698    2.4320    2.6630 O   0  0  0  0  0  0  0  0  0  0  0  0
   -2.4321    2.6648    3.5515 C   0  0  0  0  0  0  0  0  0  0  0  0
   -1.5427    3.0017    4.7372 C   0  0  2  0  0  0  0  0  0  0  0  0
   -2.4224    3.3584    5.9262 C   0  0  0  0  0  0  0  0  0  0  0  0
   -0.4170    1.9132    4.7488 C   0  0  2  0  0  0  0  0  0  0  0  0
    0.5630    1.4454    5.9426 C   0  0  2  0  0  0  0  0  0  0  0  0
    0.0025    1.9291    7.3350 C   0  0  0  0  0  0  0  0  0  0  0  0
    0.3958   -0.1233    6.1399 C   0  0  1  0  0  0  0  0  0  0  0  0
   -0.9649   -0.4467    6.4148 O   0  0  0  0  0  0  0  0  0  0  0  0
    2.0524   -4.1016    7.5323 H   0  0  0  0  0  0  0  0  0  0  0  0
    2.2185   -4.7767    5.9034 H   0  0  0  0  0  0  0  0  0  0  0  0
    0.8538   -5.2525    6.9199 H   0  0  0  0  0  0  0  0  0  0  0  0
    0.0907   -1.4047    4.3816 H   0  0  0  0  0  0  0  0  0  0  0  0
    1.3546    0.2398    3.5449 H   0  0  0  0  0  0  0  0  0  0  0  0
    2.0615   -3.3050    3.4112 H   0  0  0  0  0  0  0  0  0  0  0  0
    3.4991   -2.8367    4.3281 H   0  0  0  0  0  0  0  0  0  0  0  0
    3.6297   -3.2107    2.6266 H   0  0  0  0  0  0  0  0  0  0  0  0
    0.9324   -1.6526    1.8450 H   0  0  0  0  0  0  0  0  0  0  0  0
    2.4150   -1.7813    0.9084 H   0  0  0  0  0  0  0  0  0  0  0  0
    1.7865   -0.2079    1.3340 H   0  0  0  0  0  0  0  0  0  0  0  0
    5.5887   -1.3396    4.1901 H   0  0  0  0  0  0  0  0  0  0  0  0
    5.7101    0.3582    3.8012 H   0  0  0  0  0  0  0  0  0  0  0  0
    3.9876   -0.9795    5.8884 H   0  0  0  0  0  0  0  0  0  0  0  0
    4.7815    0.5666    5.8677 H   0  0  0  0  0  0  0  0  0  0  0  0
    3.8833    2.4014    4.5026 H   0  0  0  0  0  0  0  0  0  0  0  0
    2.4678    2.0877    3.4688 H   0  0  0  0  0  0  0  0  0  0  0  0
    2.4233    2.0526    7.8811 H   0  0  0  0  0  0  0  0  0  0  0  0
    4.6959    1.7757    7.8582 H   0  0  0  0  0  0  0  0  0  0  0  0
    4.9211    2.7976    6.3744 H   0  0  0  0  0  0  0  0  0  0  0  0
    3.6718    3.6107    9.0677 H   0  0  0  0  0  0  0  0  0  0  0  0
    4.7619    4.6017    8.0038 H   0  0  0  0  0  0  0  0  0  0  0  0
    1.9611    4.3118    7.7201 H   0  0  0  0  0  0  0  0  0  0  0  0
    2.6884    6.0650    6.3515 H   0  0  0  0  0  0  0  0  0  0  0  0
    4.3778    6.1184    4.6611 H   0  0  0  0  0  0  0  0  0  0  0  0
    4.6155    4.3870    4.7381 H   0  0  0  0  0  0  0  0  0  0  0  0
    5.1076    5.4165    6.0734 H   0  0  0  0  0  0  0  0  0  0  0  0
    0.5030    4.0812    6.1046 H   0  0  0  0  0  0  0  0  0  0  0  0
    0.0165    5.6244    5.5787 H   0  0  0  0  0  0  0  0  0  0  0  0
   -0.5580    4.8899    2.5464 H   0  0  0  0  0  0  0  0  0  0  0  0
    0.7197    2.6825    2.8685 H   0  0  0  0  0  0  0  0  0  0  0  0
   -3.0780    3.4699    3.2065 H   0  0  0  0  0  0  0  0  0  0  0  0
   -3.0010    1.7545    3.6892 H   0  0  0  0  0  0  0  0  0  0  0  0
   -2.9647    2.5008    6.3162 H   0  0  0  0  0  0  0  0  0  0  0  0
   -3.1671    4.1149    5.6705 H   0  0  0  0  0  0  0  0  0  0  0  0
   -1.8490    3.8063    6.7348 H   0  0  0  0  0  0  0  0  0  0  0  0
   -0.8882    1.0193    4.3952 H   0  0  0  0  0  0  0  0  0  0  0  0
   -1.0678    1.7532    7.4152 H   0  0  0  0  0  0  0  0  0  0  0  0
    0.1387    2.9681    7.6011 H   0  0  0  0  0  0  0  0  0  0  0  0
    0.4134    1.3645    8.1688 H   0  0  0  0  0  0  0  0  0  0  0  0
    0.9714   -0.3748    7.0323 H   0  0  0  0  0  0  0  0  0  0  0  0
   -1.4529   -0.3809    5.6037 H   0  0  0  0  0  0  0  0  0  0  0  0
  1  2  1  0
  1 38  1  0
  1 39  1  0
  1 40  1  0
  2  3  2  0
  2  4  1  0
  4  5  1  0
  5 36  1  0
  5  6  1  0
  5 41  1  6
  6 14  1  0
  6  7  1  0
  6 42  1  6
  7  8  1  0
  7  9  1  0
  7 10  1  0
  8 43  1  0
  8 44  1  0
  8 45  1  0
  9 46  1  0
  9 47  1  0
  9 48  1  0
 10 11  2  0
 10 12  1  0
 12 13  1  0
 12 49  1  0
 12 50  1  0
 14 13  1  1
 13 51  1  0
 13 52  1  0
 14 16  1  0
 14 15  1  0
 16 15  1  6
 15 53  1  0
 15 54  1  0
 16 34  1  0
 16 17  1  0
 17 20  1  0
 17 18  1  0
 17 55  1  1
 18 19  1  0
 18 56  1  0
 18 57  1  0
 19 20  1  0
 19 58  1  0
 19 59  1  0
 20 21  1  0
 20 60  1  1
 21 22  1  0
 21 23  1  0
 21 61  1  1
 22 62  1  0
 22 63  1  0
 22 64  1  0
 23 24  2  0
 23 25  1  0
 25 26  1  0
 25 65  1  0
 25 66  1  0
 26 31  1  0
 26 27  1  6
 26 28  1  0
 27 67  1  0
 28 33  1  0
 28 29  1  0
 28 68  1  6
 29 30  1  0
 30 31  1  0
 30 69  1  0
 30 70  1  0
 31 32  1  1
 31 33  1  0
 32 71  1  0
 32 72  1  0
 32 73  1  0
 33 34  1  0
 33 74  1  6
 34 35  1  1
 34 36  1  0
 35 75  1  0
 35 76  1  0
 35 77  1  0
 36 37  1  0
 36 78  1  1
 37 79  1  0
M  END
>  <i_m_ct_stereo_status>  (206) 
1

>  <s_m_source_file>  (206) 
/var/tmp/pbs.5076255.sched01/tmpavn81tjv/78c0r2i372.sdf

>  <i_m_source_file_index>  (206) 
3

>  <i_lp_mmshare_version>  (206) 
48012

>  <i_f3d_flags>  (206) 
0

>  <s_epik_input>  (206) 
W0NIMl0xW0NIMl1DKD1PKUMoW0NIM10pKFtDSDNdKVtDQEhdMltDQEBIXShPQyg9TylbQ0gzXSlbQ0BIXShbT0hdKVtDQF0zKFtDSDNdKVtDQEBIXShbQ0BAXTQoW0NIMl1PNSlbQ0gzXSlbQ0BASF01W0NAXTQoW09IXSlbQ0gyXUMoPU8pW0NASF0oW0NIM10pW0NASF0oW0NIMl1bQ0gyXTYpW0NASF02W0NAXTMoW0NAQF0xMjcpW0NIMl03

>  <s_epik_cmdline>  (206) 
J2VwaWtfcHl0aG9uJywgJy1waHQnLCAnMi4wJywgJy1waCcsICc3LjAnLCAnLXRuJywgJzgnLCAnLW1hJywgJzIwMCcsICctaW1hZScsICc8aW5maWxlLm1hZT4nLCAnLW9tYWUnLCAnPG91dGZpbGUubWFlPic=

>  <r_lp_tautomer_probability>  (206) 
1

>  <r_epik_Ionization_Penalty>  (206) 
1.41835e-07

>  <r_epik_Ionization_Penalty_Charging>  (206) 
0

>  <r_epik_Ionization_Penalty_Neutral>  (206) 
1.41835e-07

>  <r_epik_State_Penalty>  (206) 
-0

>  <r_epik_Charging_Adjusted_Penalty>  (206) 
0

>  <i_epik_Tot_Q>  (206) 
0

>  <i_epik_Tot_abs_Q>  (206) 
0

>  <s_epik_Chemistry_Notes>  (206) 
This compound has an ester and may undergo hydrolysis at high or low pH.

>  <s_lp_Force_Field>  (206) 
OPLS3e

>  <r_lp_Energy>  (206) 
130.373

>  <b_lp_Chiralities_Consistent>  (206) 
1

>  <s_lp_Variant>  (206) 
63:0-2

>  <s_i_glide_gridfile>  (206) 
pfpi4k_grid

>  <i_i_glide_lignum>  (206) 
3

>  <i_i_glide_rotatable_bonds>  (206) 
4

>  <r_i_docking_score>  (206) 
-2.20303

>  <r_i_glide_ligand_efficiency>  (206) 
-0.0595414

>  <r_i_glide_ligand_efficiency_sa>  (206) 
-0.198405

>  <r_i_glide_ligand_efficiency_ln>  (206) 
-0.477786

>  <r_i_glide_gscore>  (206) 
-2.20303

>  <r_i_glide_lipo>  (206) 
-0.139622

>  <r_i_glide_hbond>  (206) 
0

>  <r_i_glide_metal>  (206) 
-0

>  <r_i_glide_rewards>  (206) 
-0.0489401

>  <r_i_glide_evdw>  (206) 
-21.4636

>  <r_i_glide_ecoul>  (206) 
-6.68558

>  <r_i_glide_erotb>  (206) 
0.0774508

>  <r_i_glide_esite>  (206) 
-0.0159038

>  <r_i_glide_emodel>  (206) 
-31.2328

>  <r_i_glide_energy>  (206) 
-28.1492

>  <r_i_glide_einternal>  (206) 
1.12634

>  <r_i_glide_intrahb_reward>  (206) 
-0

>  <i_i_glide_confnum>  (206) 
1

>  <i_i_glide_posenum>  (206) 
17

>  <r_i_glide_eff_state_penalty>  (206) 
0

>  <ligand_id>  (206) 
63

>  <original_smiles>  (206) 
CC(=O)OC1C2C(C)(C)C(=O)CCC23CC32C3CCC3C(C)C(=O)CC3(O)C4OCC3(C)C4C2(C)C1O

>  <smiles>  (206) 
[H]OC1([H])C([H])(OC(=O)C([H])([H])[H])C2([H])C(C([H])([H])[H])(C([H])([H])[H])C(=O)C([H])([H])C([H])([H])C23C([H])([H])C32C3([H])C([H])([H])C([H])([H])C3([H])C([H])(C([H])([H])[H])C(=O)C([H])([H])C3(O[H])C4([H])OC([H])([H])C3(C([H])([H])[H])C4([H])C12C([H])([H])[H]

$$$$
63:1:1
     RDKit          3D

 79 85  0  0  1  0  0  0  0  0999 V2000
    2.7566   -6.0041    3.9488 C   0  0  0  0  0  0  0  0  0  0  0  0
    1.9920   -4.8429    3.3465 C   0  0  0  0  0  0  0  0  0  0  0  0
    1.0341   -5.0656    2.6081 O   0  0  0  0  0  0  0  0  0  0  0  0
    2.5035   -3.6355    3.6956 O   0  0  0  0  0  0  0  0  0  0  0  0
    1.9017   -2.4020    3.2798 C   0  0  2  0  0  0  0  0  0  0  0  0
    2.9482   -1.3886    2.7559 C   0  0  2  0  0  0  0  0  0  0  0  0
    3.8888   -1.7832    1.5427 C   0  0  0  0  0  0  0  0  0  0  0  0
    4.2955   -3.2700    1.4705 C   0  0  0  0  0  0  0  0  0  0  0  0
    3.1968   -1.4539    0.2120 C   0  0  0  0  0  0  0  0  0  0  0  0
    5.1950   -0.9910    1.6344 C   0  0  0  0  0  0  0  0  0  0  0  0
    5.6806   -0.3618    0.6895 O   0  0  0  0  0  0  0  0  0  0  0  0
    5.9249   -1.0975    2.9545 C   0  0  0  0  0  0  0  0  0  0  0  0
    4.9809   -1.2357    4.1742 C   0  0  0  0  0  0  0  0  0  0  0  0
    3.6080   -0.6253    3.9067 C   0  0  1  0  0  0  0  0  0  0  0  0
    3.5596    0.8382    3.8322 C   0  0  0  0  0  0  0  0  0  0  0  0
    2.7046    0.1713    4.9196 C   0  0  2  0  0  0  0  0  0  0  0  0
    3.1570    0.5865    6.3515 C   0  0  1  0  0  0  0  0  0  0  0  0
    4.6187    0.7192    6.8328 C   0  0  0  0  0  0  0  0  0  0  0  0
    4.0928    1.6560    7.9196 C   0  0  0  0  0  0  0  0  0  0  0  0
    2.9680    2.0253    6.9426 C   0  0  1  0  0  0  0  0  0  0  0  0
    3.0824    3.3809    6.1540 C   0  0  1  0  0  0  0  0  0  0  0  0
    4.5141    3.8477    5.8078 C   0  0  0  0  0  0  0  0  0  0  0  0
    2.1697    3.4690    4.9199 C   0  0  0  0  0  0  0  0  0  0  0  0
    2.5615    3.9442    3.8564 O   0  0  0  0  0  0  0  0  0  0  0  0
    0.7393    2.9817    5.1046 C   0  0  0  0  0  0  0  0  0  0  0  0
   -0.0214    2.5773    3.8363 C   0  0  1  0  0  0  0  0  0  0  0  0
   -0.5065    3.7980    3.3192 O   0  0  0  0  0  0  0  0  0  0  0  0
    0.5227    1.6192    2.7707 C   0  0  2  0  0  0  0  0  0  0  0  0
   -0.5257    1.5220    1.7971 O   0  0  0  0  0  0  0  0  0  0  0  0
   -1.6939    1.3462    2.5530 C   0  0  0  0  0  0  0  0  0  0  0  0
   -0.9833    1.3740    3.8940 C   0  0  2  0  0  0  0  0  0  0  0  0
   -1.9923    1.3125    5.0308 C   0  0  0  0  0  0  0  0  0  0  0  0
    0.2521    0.4217    3.7298 C   0  0  2  0  0  0  0  0  0  0  0  0
    1.1656   -0.2980    4.8398 C   0  0  2  0  0  0  0  0  0  0  0  0
    0.4400   -0.3122    6.2379 C   0  0  0  0  0  0  0  0  0  0  0  0
    1.1854   -1.8627    4.5485 C   0  0  1  0  0  0  0  0  0  0  0  0
   -0.1182   -2.4225    4.5573 O   0  0  0  0  0  0  0  0  0  0  0  0
    2.6921   -5.9678    5.0354 H   0  0  0  0  0  0  0  0  0  0  0  0
    3.8027   -5.9722    3.6433 H   0  0  0  0  0  0  0  0  0  0  0  0
    2.3257   -6.9446    3.6076 H   0  0  0  0  0  0  0  0  0  0  0  0
    1.1815   -2.5652    2.4746 H   0  0  0  0  0  0  0  0  0  0  0  0
    2.2970   -0.6474    2.3060 H   0  0  0  0  0  0  0  0  0  0  0  0
    3.4476   -3.9034    1.2089 H   0  0  0  0  0  0  0  0  0  0  0  0
    4.7140   -3.6206    2.4139 H   0  0  0  0  0  0  0  0  0  0  0  0
    5.0537   -3.4433    0.7020 H   0  0  0  0  0  0  0  0  0  0  0  0
    2.2843   -2.0427    0.1318 H   0  0  0  0  0  0  0  0  0  0  0  0
    3.8174   -1.6911   -0.6565 H   0  0  0  0  0  0  0  0  0  0  0  0
    2.9475   -0.3936    0.1446 H   0  0  0  0  0  0  0  0  0  0  0  0
    6.5601   -1.9689    2.8466 H   0  0  0  0  0  0  0  0  0  0  0  0
    6.5740   -0.2341    3.0754 H   0  0  0  0  0  0  0  0  0  0  0  0
    4.8539   -2.2788    4.4754 H   0  0  0  0  0  0  0  0  0  0  0  0
    5.4604   -0.7335    5.0030 H   0  0  0  0  0  0  0  0  0  0  0  0
    4.4629    1.3425    4.1400 H   0  0  0  0  0  0  0  0  0  0  0  0
    3.1988    1.2296    2.9073 H   0  0  0  0  0  0  0  0  0  0  0  0
    2.7764   -0.1380    7.0772 H   0  0  0  0  0  0  0  0  0  0  0  0
    5.0642   -0.1945    7.2362 H   0  0  0  0  0  0  0  0  0  0  0  0
    5.2900    1.2445    6.1488 H   0  0  0  0  0  0  0  0  0  0  0  0
    3.7352    1.1012    8.7996 H   0  0  0  0  0  0  0  0  0  0  0  0
    4.7825    2.4524    8.2078 H   0  0  0  0  0  0  0  0  0  0  0  0
    2.0594    2.0232    7.5327 H   0  0  0  0  0  0  0  0  0  0  0  0
    2.6939    4.1544    6.8222 H   0  0  0  0  0  0  0  0  0  0  0  0
    4.5024    4.8729    5.4324 H   0  0  0  0  0  0  0  0  0  0  0  0
    4.9547    3.2286    5.0405 H   0  0  0  0  0  0  0  0  0  0  0  0
    5.1883    3.8425    6.6572 H   0  0  0  0  0  0  0  0  0  0  0  0
    0.7894    2.1498    5.7657 H   0  0  0  0  0  0  0  0  0  0  0  0
    0.1721    3.7316    5.6515 H   0  0  0  0  0  0  0  0  0  0  0  0
   -0.2158    3.8562    2.3940 H   0  0  0  0  0  0  0  0  0  0  0  0
    1.4659    1.8230    2.3012 H   0  0  0  0  0  0  0  0  0  0  0  0
   -2.4266    2.1410    2.4072 H   0  0  0  0  0  0  0  0  0  0  0  0
   -2.0866    0.3877    2.2606 H   0  0  0  0  0  0  0  0  0  0  0  0
   -2.4911    0.3426    5.0739 H   0  0  0  0  0  0  0  0  0  0  0  0
   -2.7318    2.1085    4.9053 H   0  0  0  0  0  0  0  0  0  0  0  0
   -1.5415    1.5084    6.0054 H   0  0  0  0  0  0  0  0  0  0  0  0
   -0.0845   -0.3753    3.0833 H   0  0  0  0  0  0  0  0  0  0  0  0
   -0.5991   -0.6003    6.1266 H   0  0  0  0  0  0  0  0  0  0  0  0
    0.4294    0.6063    6.8077 H   0  0  0  0  0  0  0  0  0  0  0  0
    0.8488   -1.0590    6.9176 H   0  0  0  0  0  0  0  0  0  0  0  0
    1.7079   -2.3141    5.3922 H   0  0  0  0  0  0  0  0  0  0  0  0
   -0.5030   -2.3126    3.6996 H   0  0  0  0  0  0  0  0  0  0  0  0
  1  2  1  0
  1 38  1  0
  1 39  1  0
  1 40  1  0
  2  3  2  0
  2  4  1  0
  4  5  1  0
  5 36  1  0
  5  6  1  0
  5 41  1  6
  6 14  1  0
  6  7  1  0
  6 42  1  6
  7  8  1  0
  7  9  1  0
  7 10  1  0
  8 43  1  0
  8 44  1  0
  8 45  1  0
  9 46  1  0
  9 47  1  0
  9 48  1  0
 10 11  2  0
 10 12  1  0
 12 13  1  0
 12 49  1  0
 12 50  1  0
 14 13  1  1
 13 51  1  0
 13 52  1  0
 14 16  1  0
 14 15  1  0
 16 15  1  6
 15 53  1  0
 15 54  1  0
 16 34  1  0
 16 17  1  0
 17 20  1  0
 17 18  1  0
 17 55  1  1
 18 19  1  0
 18 56  1  0
 18 57  1  0
 19 20  1  0
 19 58  1  0
 19 59  1  0
 20 21  1  0
 20 60  1  1
 21 22  1  0
 21 23  1  0
 21 61  1  1
 22 62  1  0
 22 63  1  0
 22 64  1  0
 23 24  2  0
 23 25  1  0
 25 26  1  0
 25 65  1  0
 25 66  1  0
 26 31  1  0
 26 27  1  6
 26 28  1  0
 27 67  1  0
 28 33  1  0
 28 29  1  0
 28 68  1  6
 29 30  1  0
 30 31  1  0
 30 69  1  0
 30 70  1  0
 31 32  1  1
 31 33  1  0
 32 71  1  0
 32 72  1  0
 32 73  1  0
 33 34  1  0
 33 74  1  6
 34 35  1  1
 34 36  1  0
 35 75  1  0
 35 76  1  0
 35 77  1  0
 36 37  1  0
 36 78  1  1
 37 79  1  0
M  END
>  <i_m_ct_stereo_status>  (207) 
1

>  <s_m_source_file>  (207) 
/var/tmp/pbs.5076255.sched01/tmpavn81tjv/78c0r2i372.sdf

>  <i_m_source_file_index>  (207) 
3

>  <i_lp_mmshare_version>  (207) 
48012

>  <i_f3d_flags>  (207) 
0

>  <s_epik_input>  (207) 
W0NIMl0xW0NIMl1DKD1PKUMoW0NIM10pKFtDSDNdKVtDQEhdMltDQEBIXShPQyg9TylbQ0gzXSlbQ0BIXShbT0hdKVtDQF0zKFtDSDNdKVtDQEBIXShbQ0BAXTQoW0NIMl1PNSlbQ0gzXSlbQ0BASF01W0NAXTQoW09IXSlbQ0gyXUMoPU8pW0NASF0oW0NIM10pW0NASF0oW0NIMl1bQ0gyXTYpW0NASF02W0NAXTMoW0NAQF0xMjcpW0NIMl03

>  <s_epik_cmdline>  (207) 
J2VwaWtfcHl0aG9uJywgJy1waHQnLCAnMi4wJywgJy1waCcsICc3LjAnLCAnLXRuJywgJzgnLCAnLW1hJywgJzIwMCcsICctaW1hZScsICc8aW5maWxlLm1hZT4nLCAnLW9tYWUnLCAnPG91dGZpbGUubWFlPic=

>  <r_lp_tautomer_probability>  (207) 
1

>  <r_epik_Ionization_Penalty>  (207) 
1.41835e-07

>  <r_epik_Ionization_Penalty_Charging>  (207) 
0

>  <r_epik_Ionization_Penalty_Neutral>  (207) 
1.41835e-07

>  <r_epik_State_Penalty>  (207) 
-0

>  <r_epik_Charging_Adjusted_Penalty>  (207) 
0

>  <i_epik_Tot_Q>  (207) 
0

>  <i_epik_Tot_abs_Q>  (207) 
0

>  <s_epik_Chemistry_Notes>  (207) 
This compound has an ester and may undergo hydrolysis at high or low pH.

>  <s_lp_Force_Field>  (207) 
OPLS3e

>  <r_lp_Energy>  (207) 
130.373

>  <b_lp_Chiralities_Consistent>  (207) 
1

>  <s_lp_Variant>  (207) 
63:0-2

>  <s_i_glide_gridfile>  (207) 
pfpi4k_grid

>  <i_i_glide_lignum>  (207) 
3

>  <i_i_glide_rotatable_bonds>  (207) 
4

>  <r_i_docking_score>  (207) 
-2.00539

>  <r_i_glide_ligand_efficiency>  (207) 
-0.0541998

>  <r_i_glide_ligand_efficiency_sa>  (207) 
-0.180606

>  <r_i_glide_ligand_efficiency_ln>  (207) 
-0.434923

>  <r_i_glide_gscore>  (207) 
-2.00539

>  <r_i_glide_lipo>  (207) 
-0.164279

>  <r_i_glide_hbond>  (207) 
-0.0183083

>  <r_i_glide_metal>  (207) 
-0

>  <r_i_glide_rewards>  (207) 
-0.166273

>  <r_i_glide_evdw>  (207) 
-15.0404

>  <r_i_glide_ecoul>  (207) 
-6.49225

>  <r_i_glide_erotb>  (207) 
0.0774508

>  <r_i_glide_esite>  (207) 
-0.00812439

>  <r_i_glide_emodel>  (207) 
-24.1944

>  <r_i_glide_energy>  (207) 
-21.5327

>  <r_i_glide_einternal>  (207) 
1.06265

>  <r_i_glide_intrahb_reward>  (207) 
-0

>  <i_i_glide_confnum>  (207) 
3

>  <i_i_glide_posenum>  (207) 
27

>  <r_i_glide_eff_state_penalty>  (207) 
0

>  <ligand_id>  (207) 
63

>  <original_smiles>  (207) 
CC(=O)OC1C2C(C)(C)C(=O)CCC23CC32C3CCC3C(C)C(=O)CC3(O)C4OCC3(C)C4C2(C)C1O

>  <smiles>  (207) 
[H]OC1([H])C([H])(OC(=O)C([H])([H])[H])C2([H])C(C([H])([H])[H])(C([H])([H])[H])C(=O)C([H])([H])C([H])([H])C23C([H])([H])C32C3([H])C([H])([H])C([H])([H])C3([H])C([H])(C([H])([H])[H])C(=O)C([H])([H])C3(O[H])C4([H])OC([H])([H])C3(C([H])([H])[H])C4([H])C12C([H])([H])[H]

$$$$
63:1:2
     RDKit          3D

 79 85  0  0  1  0  0  0  0  0999 V2000
    2.8945   -6.0363    3.7284 C   0  0  0  0  0  0  0  0  0  0  0  0
    2.0712   -4.8692    3.2274 C   0  0  0  0  0  0  0  0  0  0  0  0
    1.0215   -5.0638    2.6055 O   0  0  0  0  0  0  0  0  0  0  0  0
    2.6202   -3.6698    3.5236 O   0  0  0  0  0  0  0  0  0  0  0  0
    1.9934   -2.4347    3.1582 C   0  0  2  0  0  0  0  0  0  0  0  0
    3.0237   -1.3945    2.6609 C   0  0  2  0  0  0  0  0  0  0  0  0
    3.9873   -1.7526    1.4519 C   0  0  0  0  0  0  0  0  0  0  0  0
    4.4147   -3.2366    1.3475 C   0  0  0  0  0  0  0  0  0  0  0  0
    3.3078   -1.3963    0.1241 C   0  0  0  0  0  0  0  0  0  0  0  0
    5.2881   -0.9469    1.5676 C   0  0  0  0  0  0  0  0  0  0  0  0
    5.7705   -0.2970    0.6462 O   0  0  0  0  0  0  0  0  0  0  0  0
    5.9928   -1.0823    2.9044 C   0  0  0  0  0  0  0  0  0  0  0  0
    5.0441   -1.2410    4.1088 C   0  0  0  0  0  0  0  0  0  0  0  0
    3.6656   -0.6524    3.8444 C   0  0  1  0  0  0  0  0  0  0  0  0
    3.6028    0.8139    3.8009 C   0  0  0  0  0  0  0  0  0  0  0  0
    2.7498    0.1128    4.8672 C   0  0  2  0  0  0  0  0  0  0  0  0
    3.1936    0.4908    6.3126 C   0  0  1  0  0  0  0  0  0  0  0  0
    4.6525    0.6316    6.8016 C   0  0  0  0  0  0  0  0  0  0  0  0
    4.1077    1.5326    7.9059 C   0  0  0  0  0  0  0  0  0  0  0  0
    2.9776    1.9133    6.9369 C   0  0  1  0  0  0  0  0  0  0  0  0
    3.0826    3.2817    6.1730 C   0  0  1  0  0  0  0  0  0  0  0  0
    4.5135    3.7780    5.8477 C   0  0  0  0  0  0  0  0  0  0  0  0
    2.1710    3.3994    4.9310 C   0  0  0  0  0  0  0  0  0  0  0  0
    2.5688    3.9020    3.8803 O   0  0  0  0  0  0  0  0  0  0  0  0
    0.7476    2.8851    5.0834 C   0  0  0  0  0  0  0  0  0  0  0  0
    0.0022    2.5015    3.8020 C   0  0  1  0  0  0  0  0  0  0  0  0
   -0.5004    3.7216    3.2914 O   0  0  0  0  0  0  0  0  0  0  0  0
    0.5754    1.5663    2.7256 C   0  0  2  0  0  0  0  0  0  0  0  0
   -0.4569    1.4778    1.7421 O   0  0  0  0  0  0  0  0  0  0  0  0
   -1.6376    1.2796    2.4807 C   0  0  0  0  0  0  0  0  0  0  0  0
   -0.9418    1.2818    3.8295 C   0  0  2  0  0  0  0  0  0  0  0  0
   -1.9480    1.1745    4.9613 C   0  0  0  0  0  0  0  0  0  0  0  0
    0.3013    0.3440    3.6515 C   0  0  2  0  0  0  0  0  0  0  0  0
    1.2207   -0.3756    4.7640 C   0  0  2  0  0  0  0  0  0  0  0  0
    0.4837   -0.4370    6.1511 C   0  0  0  0  0  0  0  0  0  0  0  0
    1.2722   -1.9333    4.4410 C   0  0  1  0  0  0  0  0  0  0  0  0
   -0.0193   -2.5104    4.4235 O   0  0  0  0  0  0  0  0  0  0  0  0
    2.9451   -6.0141    4.8165 H   0  0  0  0  0  0  0  0  0  0  0  0
    3.9058   -5.9935    3.3179 H   0  0  0  0  0  0  0  0  0  0  0  0
    2.4383   -6.9773    3.4210 H   0  0  0  0  0  0  0  0  0  0  0  0
    1.2793   -2.5841    2.3469 H   0  0  0  0  0  0  0  0  0  0  0  0
    2.3648   -0.6494    2.2207 H   0  0  0  0  0  0  0  0  0  0  0  0
    3.5759   -3.8759    1.0755 H   0  0  0  0  0  0  0  0  0  0  0  0
    4.8367   -3.6029    2.2855 H   0  0  0  0  0  0  0  0  0  0  0  0
    5.1770   -3.3845    0.5768 H   0  0  0  0  0  0  0  0  0  0  0  0
    2.4104   -2.0018    0.0425 H   0  0  0  0  0  0  0  0  0  0  0  0
    3.9358   -1.5999   -0.7480 H   0  0  0  0  0  0  0  0  0  0  0  0
    3.0357   -0.3388    0.0889 H   0  0  0  0  0  0  0  0  0  0  0  0
    6.6046   -1.9787    2.8201 H   0  0  0  0  0  0  0  0  0  0  0  0
    6.6519   -0.2333    3.0469 H   0  0  0  0  0  0  0  0  0  0  0  0
    4.9293   -2.2909    4.3773 H   0  0  0  0  0  0  0  0  0  0  0  0
    5.5136   -0.7520    4.9553 H   0  0  0  0  0  0  0  0  0  0  0  0
    4.5022    1.3193    4.1183 H   0  0  0  0  0  0  0  0  0  0  0  0
    3.2532    1.2234    2.8761 H   0  0  0  0  0  0  0  0  0  0  0  0
    2.8122   -0.2605    7.0063 H   0  0  0  0  0  0  0  0  0  0  0  0
    5.1061   -0.2852    7.1817 H   0  0  0  0  0  0  0  0  0  0  0  0
    5.3183    1.1811    6.1331 H   0  0  0  0  0  0  0  0  0  0  0  0
    3.7500    0.9607    8.7686 H   0  0  0  0  0  0  0  0  0  0  0  0
    4.7731    2.3336    8.2218 H   0  0  0  0  0  0  0  0  0  0  0  0
    2.0555    1.8911    7.5122 H   0  0  0  0  0  0  0  0  0  0  0  0
    2.6810    4.0346    6.8523 H   0  0  0  0  0  0  0  0  0  0  0  0
    4.4889    4.8158    5.5006 H   0  0  0  0  0  0  0  0  0  0  0  0
    4.9712    3.1893    5.0713 H   0  0  0  0  0  0  0  0  0  0  0  0
    5.1779    3.7627    6.7052 H   0  0  0  0  0  0  0  0  0  0  0  0
    0.8035    2.0352    5.7262 H   0  0  0  0  0  0  0  0  0  0  0  0
    0.1651    3.6120    5.6473 H   0  0  0  0  0  0  0  0  0  0  0  0
   -0.2142    3.7742    2.3602 H   0  0  0  0  0  0  0  0  0  0  0  0
    1.5159    1.7967    2.2636 H   0  0  0  0  0  0  0  0  0  0  0  0
   -2.3745    2.0778    2.3558 H   0  0  0  0  0  0  0  0  0  0  0  0
   -2.0433    0.3162    2.1911 H   0  0  0  0  0  0  0  0  0  0  0  0
   -2.4455    0.2009    4.9767 H   0  0  0  0  0  0  0  0  0  0  0  0
   -2.6840    1.9630    4.8276 H   0  0  0  0  0  0  0  0  0  0  0  0
   -1.5097    1.3574    5.9480 H   0  0  0  0  0  0  0  0  0  0  0  0
   -0.0132   -0.4592    2.9861 H   0  0  0  0  0  0  0  0  0  0  0  0
   -0.5536   -0.7298    6.0307 H   0  0  0  0  0  0  0  0  0  0  0  0
    0.4620    0.4682    6.7413 H   0  0  0  0  0  0  0  0  0  0  0  0
    0.8980   -1.1949    6.8200 H   0  0  0  0  0  0  0  0  0  0  0  0
    1.8024   -2.4086    5.2692 H   0  0  0  0  0  0  0  0  0  0  0  0
   -0.3674   -2.4940    5.3013 H   0  0  0  0  0  0  0  0  0  0  0  0
  1  2  1  0
  1 38  1  0
  1 39  1  0
  1 40  1  0
  2  3  2  0
  2  4  1  0
  4  5  1  0
  5 36  1  0
  5  6  1  0
  5 41  1  6
  6 14  1  0
  6  7  1  0
  6 42  1  6
  7  8  1  0
  7  9  1  0
  7 10  1  0
  8 43  1  0
  8 44  1  0
  8 45  1  0
  9 46  1  0
  9 47  1  0
  9 48  1  0
 10 11  2  0
 10 12  1  0
 12 13  1  0
 12 49  1  0
 12 50  1  0
 14 13  1  1
 13 51  1  0
 13 52  1  0
 14 16  1  0
 14 15  1  0
 16 15  1  6
 15 53  1  0
 15 54  1  0
 16 34  1  0
 16 17  1  0
 17 20  1  0
 17 18  1  0
 17 55  1  1
 18 19  1  0
 18 56  1  0
 18 57  1  0
 19 20  1  0
 19 58  1  0
 19 59  1  0
 20 21  1  0
 20 60  1  1
 21 22  1  0
 21 23  1  0
 21 61  1  1
 22 62  1  0
 22 63  1  0
 22 64  1  0
 23 24  2  0
 23 25  1  0
 25 26  1  0
 25 65  1  0
 25 66  1  0
 26 31  1  0
 26 27  1  6
 26 28  1  0
 27 67  1  0
 28 33  1  0
 28 29  1  0
 28 68  1  6
 29 30  1  0
 30 31  1  0
 30 69  1  0
 30 70  1  0
 31 32  1  1
 31 33  1  0
 32 71  1  0
 32 72  1  0
 32 73  1  0
 33 34  1  0
 33 74  1  6
 34 35  1  1
 34 36  1  0
 35 75  1  0
 35 76  1  0
 35 77  1  0
 36 37  1  0
 36 78  1  1
 37 79  1  0
M  END
>  <i_m_ct_stereo_status>  (208) 
1

>  <s_m_source_file>  (208) 
/var/tmp/pbs.5076255.sched01/tmpavn81tjv/78c0r2i372.sdf

>  <i_m_source_file_index>  (208) 
3

>  <i_lp_mmshare_version>  (208) 
48012

>  <i_f3d_flags>  (208) 
0

>  <s_epik_input>  (208) 
W0NIMl0xW0NIMl1DKD1PKUMoW0NIM10pKFtDSDNdKVtDQEhdMltDQEBIXShPQyg9TylbQ0gzXSlbQ0BIXShbT0hdKVtDQF0zKFtDSDNdKVtDQEBIXShbQ0BAXTQoW0NIMl1PNSlbQ0gzXSlbQ0BASF01W0NAXTQoW09IXSlbQ0gyXUMoPU8pW0NASF0oW0NIM10pW0NASF0oW0NIMl1bQ0gyXTYpW0NASF02W0NAXTMoW0NAQF0xMjcpW0NIMl03

>  <s_epik_cmdline>  (208) 
J2VwaWtfcHl0aG9uJywgJy1waHQnLCAnMi4wJywgJy1waCcsICc3LjAnLCAnLXRuJywgJzgnLCAnLW1hJywgJzIwMCcsICctaW1hZScsICc8aW5maWxlLm1hZT4nLCAnLW9tYWUnLCAnPG91dGZpbGUubWFlPic=

>  <r_lp_tautomer_probability>  (208) 
1

>  <r_epik_Ionization_Penalty>  (208) 
1.41835e-07

>  <r_epik_Ionization_Penalty_Charging>  (208) 
0

>  <r_epik_Ionization_Penalty_Neutral>  (208) 
1.41835e-07

>  <r_epik_State_Penalty>  (208) 
-0

>  <r_epik_Charging_Adjusted_Penalty>  (208) 
0

>  <i_epik_Tot_Q>  (208) 
0

>  <i_epik_Tot_abs_Q>  (208) 
0

>  <s_epik_Chemistry_Notes>  (208) 
This compound has an ester and may undergo hydrolysis at high or low pH.

>  <s_lp_Force_Field>  (208) 
OPLS3e

>  <r_lp_Energy>  (208) 
130.373

>  <b_lp_Chiralities_Consistent>  (208) 
1

>  <s_lp_Variant>  (208) 
63:0-2

>  <s_i_glide_gridfile>  (208) 
pfpi4k_grid

>  <i_i_glide_lignum>  (208) 
3

>  <i_i_glide_rotatable_bonds>  (208) 
4

>  <r_i_docking_score>  (208) 
-1.20335

>  <r_i_glide_ligand_efficiency>  (208) 
-0.0325231

>  <r_i_glide_ligand_efficiency_sa>  (208) 
-0.108374

>  <r_i_glide_ligand_efficiency_ln>  (208) 
-0.260979

>  <r_i_glide_gscore>  (208) 
-1.20335

>  <r_i_glide_lipo>  (208) 
-0.1646

>  <r_i_glide_hbond>  (208) 
-0.0318088

>  <r_i_glide_metal>  (208) 
-0

>  <r_i_glide_rewards>  (208) 
-0.168504

>  <r_i_glide_evdw>  (208) 
-15.1349

>  <r_i_glide_ecoul>  (208) 
-1.00789

>  <r_i_glide_erotb>  (208) 
0.0774508

>  <r_i_glide_esite>  (208) 
-0.00796299

>  <r_i_glide_emodel>  (208) 
-17.3856

>  <r_i_glide_energy>  (208) 
-16.1428

>  <r_i_glide_einternal>  (208) 
1.08127

>  <r_i_glide_intrahb_reward>  (208) 
-0

>  <i_i_glide_confnum>  (208) 
3

>  <i_i_glide_posenum>  (208) 
29

>  <r_i_glide_eff_state_penalty>  (208) 
0

>  <ligand_id>  (208) 
63

>  <original_smiles>  (208) 
CC(=O)OC1C2C(C)(C)C(=O)CCC23CC32C3CCC3C(C)C(=O)CC3(O)C4OCC3(C)C4C2(C)C1O

>  <smiles>  (208) 
[H]OC1([H])C([H])(OC(=O)C([H])([H])[H])C2([H])C(C([H])([H])[H])(C([H])([H])[H])C(=O)C([H])([H])C([H])([H])C23C([H])([H])C32C3([H])C([H])([H])C([H])([H])C3([H])C([H])(C([H])([H])[H])C(=O)C([H])([H])C3(O[H])C4([H])OC([H])([H])C3(C([H])([H])[H])C4([H])C12C([H])([H])[H]

$$$$
64:0:0
     RDKit          3D

 36 40  0  0  1  0  0  0  0  0999 V2000
    6.1051   -0.9443    1.3920 C   0  0  0  0  0  0  0  0  0  0  0  0
    5.6332   -1.9422    0.6330 C   0  0  0  0  0  0  0  0  0  0  0  0
    6.0210   -3.3885    0.8665 C   0  0  1  0  0  0  0  0  0  0  0  0
    4.8695   -4.0852    1.3434 O   0  0  0  0  0  0  0  0  0  0  0  0
    4.1368   -4.5821    0.3384 C   0  0  0  0  0  0  0  0  0  0  0  0
    3.0685   -5.1864    0.4478 O   0  0  0  0  0  0  0  0  0  0  0  0
    4.8504   -4.2924   -0.9507 C   0  0  2  0  0  0  0  0  0  0  0  0
    6.2916   -4.1020   -0.4605 C   0  0  1  0  0  0  0  0  0  0  0  0
    7.0009   -3.1849   -1.4870 C   0  0  0  0  0  0  0  0  0  0  0  0
    5.8468   -2.4160   -2.1370 C   0  0  2  0  0  0  0  0  0  0  0  0
    5.3455   -1.0428   -1.7202 C   0  0  1  0  0  0  0  0  0  0  0  0
    4.3928   -0.4274   -2.7478 C   0  0  0  0  0  0  0  0  0  0  0  0
    3.3670   -1.4404   -3.2950 C   0  0  0  0  0  0  0  0  0  0  0  0
    3.3290   -2.7821   -2.5240 C   0  0  1  0  0  0  0  0  0  0  0  0
    3.3555   -3.7667   -3.5203 O   0  0  0  0  0  0  0  0  0  0  0  0
    4.5358   -2.9114   -1.5344 C   0  0  1  0  0  0  0  0  0  0  0  0
    4.6638   -1.7041   -0.5265 C   0  0  1  0  0  0  0  0  0  0  0  0
    3.4126   -1.0418    0.0200 C   0  0  0  0  0  0  0  0  0  0  0  0
    5.8090    0.0815    1.2209 H   0  0  0  0  0  0  0  0  0  0  0  0
    6.7527   -1.1579    2.2262 H   0  0  0  0  0  0  0  0  0  0  0  0
    6.8691   -3.4370    1.5453 H   0  0  0  0  0  0  0  0  0  0  0  0
    4.7498   -5.1013   -1.6793 H   0  0  0  0  0  0  0  0  0  0  0  0
    6.8002   -5.0466   -0.3000 H   0  0  0  0  0  0  0  0  0  0  0  0
    7.7841   -2.5456   -1.0434 H   0  0  0  0  0  0  0  0  0  0  0  0
    7.4891   -3.7810   -2.2497 H   0  0  0  0  0  0  0  0  0  0  0  0
    5.8504   -2.5490   -3.2028 H   0  0  0  0  0  0  0  0  0  0  0  0
    6.1195   -0.3762   -1.3656 H   0  0  0  0  0  0  0  0  0  0  0  0
    3.9207    0.4542   -2.3563 H   0  0  0  0  0  0  0  0  0  0  0  0
    4.9148   -0.1017   -3.6223 H   0  0  0  0  0  0  0  0  0  0  0  0
    2.3870   -0.9734   -3.3315 H   0  0  0  0  0  0  0  0  0  0  0  0
    3.6410   -1.6295   -4.3390 H   0  0  0  0  0  0  0  0  0  0  0  0
    2.3774   -2.8311   -1.9583 H   0  0  0  0  0  0  0  0  0  0  0  0
    3.1156   -4.6138   -3.1206 H   0  0  0  0  0  0  0  0  0  0  0  0
    2.7484   -0.8036   -0.7889 H   0  0  0  0  0  0  0  0  0  0  0  0
    3.6270   -0.0851    0.5246 H   0  0  0  0  0  0  0  0  0  0  0  0
    2.8983   -1.7094    0.7041 H   0  0  0  0  0  0  0  0  0  0  0  0
  1  2  2  0
  1 19  1  0
  1 20  1  0
  2 17  1  0
  2  3  1  0
  3  8  1  0
  3  4  1  0
  3 21  1  1
  4  5  1  0
  5  6  2  0
  5  7  1  0
  7 16  1  0
  7  8  1  0
  7 22  1  6
  8  9  1  0
  8 23  1  1
  9 10  1  0
  9 24  1  0
  9 25  1  0
 10 16  1  0
 10 11  1  0
 10 26  1  6
 11 17  1  0
 11 12  1  0
 11 27  1  1
 12 13  1  0
 12 28  1  0
 12 29  1  0
 13 14  1  0
 13 30  1  0
 13 31  1  0
 14 15  1  0
 14 16  1  0
 14 32  1  1
 15 33  1  0
 16 17  1  1
 17 18  1  1
 18 34  1  0
 18 35  1  0
 18 36  1  0
M  END
>  <i_m_ct_stereo_status>  (209) 
1

>  <s_m_source_file>  (209) 
/var/tmp/pbs.5076255.sched01/tmpavn81tjv/78c0r2i372.sdf

>  <i_m_source_file_index>  (209) 
4

>  <i_lp_mmshare_version>  (209) 
48012

>  <i_f3d_flags>  (209) 
0

>  <s_epik_input>  (209) 
Tz1DMU9bQ0BASF0oW0NASF0yW0NAQEhdMVtDQEBdMzQ1KUMoPVtDSDJdKVtDQEBdNShbQ0gzXSlbQ0BASF0oW0NASF0zW0NIMl0yKVtDSDJdW0NIMl1bQ0BIXTRbT0hd

>  <s_epik_cmdline>  (209) 
J2VwaWtfcHl0aG9uJywgJy1waHQnLCAnMi4wJywgJy1waCcsICc3LjAnLCAnLXRuJywgJzgnLCAnLW1hJywgJzIwMCcsICctaW1hZScsICc8aW5maWxlLm1hZT4nLCAnLW9tYWUnLCAnPG91dGZpbGUubWFlPic=

>  <r_lp_tautomer_probability>  (209) 
1

>  <r_epik_Ionization_Penalty>  (209) 
5.40407e-07

>  <r_epik_Ionization_Penalty_Charging>  (209) 
0

>  <r_epik_Ionization_Penalty_Neutral>  (209) 
5.40407e-07

>  <r_epik_State_Penalty>  (209) 
-0

>  <r_epik_Charging_Adjusted_Penalty>  (209) 
0

>  <i_epik_Tot_Q>  (209) 
0

>  <i_epik_Tot_abs_Q>  (209) 
0

>  <s_epik_Chemistry_Notes>  (209) 
This compound has an ester and may undergo hydrolysis at high or low pH.

>  <s_lp_Force_Field>  (209) 
OPLS3e

>  <r_lp_Energy>  (209) 
64.0196

>  <b_lp_Chiralities_Consistent>  (209) 
1

>  <s_lp_Variant>  (209) 
64:0-1

>  <s_i_glide_gridfile>  (209) 
pfpi4k_grid

>  <i_i_glide_lignum>  (209) 
4

>  <i_i_glide_rotatable_bonds>  (209) 
1

>  <r_i_docking_score>  (209) 
-4.08669

>  <r_i_glide_ligand_efficiency>  (209) 
-0.227038

>  <r_i_glide_ligand_efficiency_sa>  (209) 
-0.595009

>  <r_i_glide_ligand_efficiency_ln>  (209) 
-1.05046

>  <r_i_glide_gscore>  (209) 
-4.08669

>  <r_i_glide_lipo>  (209) 
-0.593391

>  <r_i_glide_hbond>  (209) 
-0.32

>  <r_i_glide_metal>  (209) 
-0

>  <r_i_glide_rewards>  (209) 
-1.76634

>  <r_i_glide_evdw>  (209) 
-8.05374

>  <r_i_glide_ecoul>  (209) 
-6.69519

>  <r_i_glide_erotb>  (209) 
0

>  <r_i_glide_esite>  (209) 
0

>  <r_i_glide_emodel>  (209) 
-18.3438

>  <r_i_glide_energy>  (209) 
-14.7489

>  <r_i_glide_einternal>  (209) 
0.441418

>  <r_i_glide_intrahb_reward>  (209) 
-0

>  <i_i_glide_confnum>  (209) 
2

>  <i_i_glide_posenum>  (209) 
9

>  <r_i_glide_eff_state_penalty>  (209) 
0

>  <ligand_id>  (209) 
64

>  <original_smiles>  (209) 
C=C1C2OC(=O)C3C2CC2C4CCC(O)C23C14C

>  <smiles>  (209) 
[H]OC1([H])C([H])([H])C([H])([H])C2([H])C3([H])C([H])([H])C4([H])C5([H])OC(=O)C4([H])C13C2(C([H])([H])[H])C5=C([H])[H]

$$$$
64:0:1
     RDKit          3D

 36 40  0  0  1  0  0  0  0  0999 V2000
    6.7166   -1.0962    0.8635 C   0  0  0  0  0  0  0  0  0  0  0  0
    5.7280   -1.9907    0.9490 C   0  0  0  0  0  0  0  0  0  0  0  0
    5.6515   -2.9699    2.1081 C   0  0  1  0  0  0  0  0  0  0  0  0
    4.5595   -2.6215    2.9416 O   0  0  0  0  0  0  0  0  0  0  0  0
    3.4283   -3.2165    2.5546 C   0  0  0  0  0  0  0  0  0  0  0  0
    2.3155   -3.0911    3.0507 O   0  0  0  0  0  0  0  0  0  0  0  0
    3.7693   -4.1313    1.3851 C   0  0  2  0  0  0  0  0  0  0  0  0
    5.2607   -4.3735    1.6264 C   0  0  1  0  0  0  0  0  0  0  0  0
    5.8941   -4.7158    0.2621 C   0  0  0  0  0  0  0  0  0  0  0  0
    4.9546   -4.0802   -0.7530 C   0  0  2  0  0  0  0  0  0  0  0  0
    5.1059   -2.7027   -1.4144 C   0  0  1  0  0  0  0  0  0  0  0  0
    4.1582   -2.4900   -2.6022 C   0  0  0  0  0  0  0  0  0  0  0  0
    2.7196   -3.0122   -2.2868 C   0  0  0  0  0  0  0  0  0  0  0  0
    2.4766   -3.4055   -0.7859 C   0  0  1  0  0  0  0  0  0  0  0  0
    1.8130   -4.6529   -0.7186 O   0  0  0  0  0  0  0  0  0  0  0  0
    3.7928   -3.4419    0.0064 C   0  0  1  0  0  0  0  0  0  0  0  0
    4.6115   -2.0989   -0.0858 C   0  0  1  0  0  0  0  0  0  0  0  0
    3.8491   -0.7657   -0.1113 C   0  0  0  0  0  0  0  0  0  0  0  0
    6.7655   -0.3663    0.0750 H   0  0  0  0  0  0  0  0  0  0  0  0
    7.4675   -1.0509    1.6316 H   0  0  0  0  0  0  0  0  0  0  0  0
    6.6013   -2.9645    2.6218 H   0  0  0  0  0  0  0  0  0  0  0  0
    3.1856   -5.0515    1.4118 H   0  0  0  0  0  0  0  0  0  0  0  0
    5.4451   -5.1320    2.3901 H   0  0  0  0  0  0  0  0  0  0  0  0
    6.9360   -4.3911    0.1638 H   0  0  0  0  0  0  0  0  0  0  0  0
    5.8800   -5.7983    0.1377 H   0  0  0  0  0  0  0  0  0  0  0  0
    4.6258   -4.8135   -1.4835 H   0  0  0  0  0  0  0  0  0  0  0  0
    6.1498   -2.4735   -1.6388 H   0  0  0  0  0  0  0  0  0  0  0  0
    4.1166   -1.4297   -2.8490 H   0  0  0  0  0  0  0  0  0  0  0  0
    4.5456   -2.9757   -3.5003 H   0  0  0  0  0  0  0  0  0  0  0  0
    1.9805   -2.2762   -2.6034 H   0  0  0  0  0  0  0  0  0  0  0  0
    2.5452   -3.8616   -2.9422 H   0  0  0  0  0  0  0  0  0  0  0  0
    1.8139   -2.6798   -0.3098 H   0  0  0  0  0  0  0  0  0  0  0  0
    2.2591   -5.2337   -1.3356 H   0  0  0  0  0  0  0  0  0  0  0  0
    3.0463   -0.7709   -0.8439 H   0  0  0  0  0  0  0  0  0  0  0  0
    4.4976    0.0739   -0.3640 H   0  0  0  0  0  0  0  0  0  0  0  0
    3.3861   -0.5607    0.8526 H   0  0  0  0  0  0  0  0  0  0  0  0
  1  2  2  0
  1 19  1  0
  1 20  1  0
  2 17  1  0
  2  3  1  0
  3  8  1  0
  3  4  1  0
  3 21  1  1
  4  5  1  0
  5  6  2  0
  5  7  1  0
  7 16  1  0
  7  8  1  0
  7 22  1  6
  8  9  1  0
  8 23  1  1
  9 10  1  0
  9 24  1  0
  9 25  1  0
 10 16  1  0
 10 11  1  0
 10 26  1  6
 11 17  1  0
 11 12  1  0
 11 27  1  6
 12 13  1  0
 12 28  1  0
 12 29  1  0
 13 14  1  0
 13 30  1  0
 13 31  1  0
 14 15  1  0
 14 16  1  0
 14 32  1  1
 15 33  1  0
 16 17  1  1
 17 18  1  6
 18 34  1  0
 18 35  1  0
 18 36  1  0
M  END
>  <i_m_ct_stereo_status>  (210) 
1

>  <s_m_source_file>  (210) 
/var/tmp/pbs.5076255.sched01/tmpavn81tjv/78c0r2i372.sdf

>  <i_m_source_file_index>  (210) 
4

>  <i_lp_mmshare_version>  (210) 
48012

>  <i_f3d_flags>  (210) 
0

>  <s_epik_input>  (210) 
Tz1DMU9bQ0BASF0oW0NASF0yW0NAQEhdMVtDQEBdMzQ1KUMoPVtDSDJdKVtDQEBdNShbQ0gzXSlbQ0BASF0oW0NASF0zW0NIMl0yKVtDSDJdW0NIMl1bQ0BIXTRbT0hd

>  <s_epik_cmdline>  (210) 
J2VwaWtfcHl0aG9uJywgJy1waHQnLCAnMi4wJywgJy1waCcsICc3LjAnLCAnLXRuJywgJzgnLCAnLW1hJywgJzIwMCcsICctaW1hZScsICc8aW5maWxlLm1hZT4nLCAnLW9tYWUnLCAnPG91dGZpbGUubWFlPic=

>  <r_lp_tautomer_probability>  (210) 
1

>  <r_epik_Ionization_Penalty>  (210) 
5.40407e-07

>  <r_epik_Ionization_Penalty_Charging>  (210) 
0

>  <r_epik_Ionization_Penalty_Neutral>  (210) 
5.40407e-07

>  <r_epik_State_Penalty>  (210) 
-0

>  <r_epik_Charging_Adjusted_Penalty>  (210) 
0

>  <i_epik_Tot_Q>  (210) 
0

>  <i_epik_Tot_abs_Q>  (210) 
0

>  <s_epik_Chemistry_Notes>  (210) 
This compound has an ester and may undergo hydrolysis at high or low pH.

>  <s_lp_Force_Field>  (210) 
OPLS3e

>  <r_lp_Energy>  (210) 
64.0196

>  <b_lp_Chiralities_Consistent>  (210) 
1

>  <s_lp_Variant>  (210) 
64:0-1

>  <s_i_glide_gridfile>  (210) 
pfpi4k_grid

>  <i_i_glide_lignum>  (210) 
4

>  <i_i_glide_rotatable_bonds>  (210) 
1

>  <r_i_docking_score>  (210) 
-3.86685

>  <r_i_glide_ligand_efficiency>  (210) 
-0.214825

>  <r_i_glide_ligand_efficiency_sa>  (210) 
-0.563

>  <r_i_glide_ligand_efficiency_ln>  (210) 
-0.993953

>  <r_i_glide_gscore>  (210) 
-3.86685

>  <r_i_glide_lipo>  (210) 
-0.40616

>  <r_i_glide_hbond>  (210) 
-0.326306

>  <r_i_glide_metal>  (210) 
-0

>  <r_i_glide_rewards>  (210) 
-1.73061

>  <r_i_glide_evdw>  (210) 
-11.7678

>  <r_i_glide_ecoul>  (210) 
-5.43585

>  <r_i_glide_erotb>  (210) 
0

>  <r_i_glide_esite>  (210) 
0

>  <r_i_glide_emodel>  (210) 
-21.0299

>  <r_i_glide_energy>  (210) 
-17.2037

>  <r_i_glide_einternal>  (210) 
0.238936

>  <r_i_glide_intrahb_reward>  (210) 
-0

>  <i_i_glide_confnum>  (210) 
1

>  <i_i_glide_posenum>  (210) 
1

>  <r_i_glide_eff_state_penalty>  (210) 
0

>  <ligand_id>  (210) 
64

>  <original_smiles>  (210) 
C=C1C2OC(=O)C3C2CC2C4CCC(O)C23C14C

>  <smiles>  (210) 
[H]OC1([H])C([H])([H])C([H])([H])C2([H])C3([H])C([H])([H])C4([H])C5([H])OC(=O)C4([H])C13C2(C([H])([H])[H])C5=C([H])[H]

$$$$
64:0:2
     RDKit          3D

 36 40  0  0  1  0  0  0  0  0999 V2000
    3.9002   -5.0192    1.6719 C   0  0  0  0  0  0  0  0  0  0  0  0
    4.4066   -3.8862    1.1473 C   0  0  0  0  0  0  0  0  0  0  0  0
    5.2204   -2.9148    2.0042 C   0  0  1  0  0  0  0  0  0  0  0  0
    6.5757   -2.9645    1.5688 O   0  0  0  0  0  0  0  0  0  0  0  0
    6.8264   -2.0809    0.5988 C   0  0  0  0  0  0  0  0  0  0  0  0
    7.8843   -1.8919    0.0201 O   0  0  0  0  0  0  0  0  0  0  0  0
    5.5610   -1.2897    0.3557 C   0  0  2  0  0  0  0  0  0  0  0  0
    4.8412   -1.4532    1.6945 C   0  0  1  0  0  0  0  0  0  0  0  0
    3.3342   -1.2940    1.4141 C   0  0  0  0  0  0  0  0  0  0  0  0
    3.2013   -1.6614   -0.0564 C   0  0  2  0  0  0  0  0  0  0  0  0
    2.7931   -3.0224   -0.6408 C   0  0  1  0  0  0  0  0  0  0  0  0
    2.4453   -2.9761   -2.1349 C   0  0  0  0  0  0  0  0  0  0  0  0
    3.4437   -2.0845   -2.9260 C   0  0  0  0  0  0  0  0  0  0  0  0
    4.7225   -1.6709   -2.1190 C   0  0  1  0  0  0  0  0  0  0  0  0
    4.9385   -0.2907   -2.3210 O   0  0  0  0  0  0  0  0  0  0  0  0
    4.5790   -1.9732   -0.6134 C   0  0  1  0  0  0  0  0  0  0  0  0
    4.2319   -3.4782   -0.3189 C   0  0  1  0  0  0  0  0  0  0  0  0
    4.8913   -4.5495   -1.1991 C   0  0  0  0  0  0  0  0  0  0  0  0
    3.3432   -5.7156    1.0617 H   0  0  0  0  0  0  0  0  0  0  0  0
    4.0688   -5.2725    2.7089 H   0  0  0  0  0  0  0  0  0  0  0  0
    5.1127   -3.1491    3.0667 H   0  0  0  0  0  0  0  0  0  0  0  0
    5.7692   -0.2437    0.1123 H   0  0  0  0  0  0  0  0  0  0  0  0
    5.2098   -0.7644    2.4590 H   0  0  0  0  0  0  0  0  0  0  0  0
    2.6905   -1.8831    2.0768 H   0  0  0  0  0  0  0  0  0  0  0  0
    3.0605   -0.2482    1.5479 H   0  0  0  0  0  0  0  0  0  0  0  0
    2.7678   -0.8411   -0.6013 H   0  0  0  0  0  0  0  0  0  0  0  0
    2.0496   -3.5281   -0.0229 H   0  0  0  0  0  0  0  0  0  0  0  0
    2.4464   -3.9715   -2.5506 H   0  0  0  0  0  0  0  0  0  0  0  0
    1.4225   -2.6498   -2.2987 H   0  0  0  0  0  0  0  0  0  0  0  0
    3.7364   -2.5897   -3.8447 H   0  0  0  0  0  0  0  0  0  0  0  0
    2.8961   -1.1977   -3.2440 H   0  0  0  0  0  0  0  0  0  0  0  0
    5.5952   -2.1871   -2.5261 H   0  0  0  0  0  0  0  0  0  0  0  0
    4.1990    0.1871   -1.9835 H   0  0  0  0  0  0  0  0  0  0  0  0
    4.7950   -4.3426   -2.2604 H   0  0  0  0  0  0  0  0  0  0  0  0
    4.4597   -5.5386   -1.0407 H   0  0  0  0  0  0  0  0  0  0  0  0
    5.9563   -4.6170   -0.9838 H   0  0  0  0  0  0  0  0  0  0  0  0
  1  2  2  0
  1 19  1  0
  1 20  1  0
  2 17  1  0
  2  3  1  0
  3  8  1  0
  3  4  1  0
  3 21  1  1
  4  5  1  0
  5  6  2  0
  5  7  1  0
  7 16  1  0
  7  8  1  0
  7 22  1  6
  8  9  1  0
  8 23  1  1
  9 10  1  0
  9 24  1  0
  9 25  1  0
 10 16  1  0
 10 11  1  0
 10 26  1  6
 11 17  1  0
 11 12  1  0
 11 27  1  1
 12 13  1  0
 12 28  1  0
 12 29  1  0
 13 14  1  0
 13 30  1  0
 13 31  1  0
 14 15  1  0
 14 16  1  0
 14 32  1  6
 15 33  1  0
 16 17  1  6
 17 18  1  6
 18 34  1  0
 18 35  1  0
 18 36  1  0
M  END
>  <i_m_ct_stereo_status>  (211) 
1

>  <s_m_source_file>  (211) 
/var/tmp/pbs.5076255.sched01/tmpavn81tjv/78c0r2i372.sdf

>  <i_m_source_file_index>  (211) 
4

>  <i_lp_mmshare_version>  (211) 
48012

>  <i_f3d_flags>  (211) 
0

>  <s_epik_input>  (211) 
Tz1DMU9bQ0BASF0oW0NASF0yW0NAQEhdMVtDQEBdMzQ1KUMoPVtDSDJdKVtDQEBdNShbQ0gzXSlbQ0BASF0oW0NASF0zW0NIMl0yKVtDSDJdW0NIMl1bQ0BIXTRbT0hd

>  <s_epik_cmdline>  (211) 
J2VwaWtfcHl0aG9uJywgJy1waHQnLCAnMi4wJywgJy1waCcsICc3LjAnLCAnLXRuJywgJzgnLCAnLW1hJywgJzIwMCcsICctaW1hZScsICc8aW5maWxlLm1hZT4nLCAnLW9tYWUnLCAnPG91dGZpbGUubWFlPic=

>  <r_lp_tautomer_probability>  (211) 
1

>  <r_epik_Ionization_Penalty>  (211) 
5.40407e-07

>  <r_epik_Ionization_Penalty_Charging>  (211) 
0

>  <r_epik_Ionization_Penalty_Neutral>  (211) 
5.40407e-07

>  <r_epik_State_Penalty>  (211) 
-0

>  <r_epik_Charging_Adjusted_Penalty>  (211) 
0

>  <i_epik_Tot_Q>  (211) 
0

>  <i_epik_Tot_abs_Q>  (211) 
0

>  <s_epik_Chemistry_Notes>  (211) 
This compound has an ester and may undergo hydrolysis at high or low pH.

>  <s_lp_Force_Field>  (211) 
OPLS3e

>  <r_lp_Energy>  (211) 
64.0196

>  <b_lp_Chiralities_Consistent>  (211) 
1

>  <s_lp_Variant>  (211) 
64:0-1

>  <s_i_glide_gridfile>  (211) 
pfpi4k_grid

>  <i_i_glide_lignum>  (211) 
4

>  <i_i_glide_rotatable_bonds>  (211) 
1

>  <r_i_docking_score>  (211) 
-3.15344

>  <r_i_glide_ligand_efficiency>  (211) 
-0.175191

>  <r_i_glide_ligand_efficiency_sa>  (211) 
-0.459131

>  <r_i_glide_ligand_efficiency_ln>  (211) 
-0.810577

>  <r_i_glide_gscore>  (211) 
-3.15344

>  <r_i_glide_lipo>  (211) 
-0.265794

>  <r_i_glide_hbond>  (211) 
-0.0931694

>  <r_i_glide_metal>  (211) 
-0

>  <r_i_glide_rewards>  (211) 
-1.79975

>  <r_i_glide_evdw>  (211) 
-12.6783

>  <r_i_glide_ecoul>  (211) 
-2.40546

>  <r_i_glide_erotb>  (211) 
0

>  <r_i_glide_esite>  (211) 
0

>  <r_i_glide_emodel>  (211) 
-18.3338

>  <r_i_glide_energy>  (211) 
-15.0837

>  <r_i_glide_einternal>  (211) 
0.000488062

>  <r_i_glide_intrahb_reward>  (211) 
-0

>  <i_i_glide_confnum>  (211) 
1

>  <i_i_glide_posenum>  (211) 
26

>  <r_i_glide_eff_state_penalty>  (211) 
0

>  <ligand_id>  (211) 
64

>  <original_smiles>  (211) 
C=C1C2OC(=O)C3C2CC2C4CCC(O)C23C14C

>  <smiles>  (211) 
[H]OC1([H])C([H])([H])C([H])([H])C2([H])C3([H])C([H])([H])C4([H])C5([H])OC(=O)C4([H])C13C2(C([H])([H])[H])C5=C([H])[H]

$$$$
65:0:0
     RDKit          3D

 12 12  0  0  1  0  0  0  0  0999 V2000
   -2.1852    0.5425    6.6721 O   0  0  0  0  0  0  0  0  0  0  0  0
   -1.8242   -0.1313    5.6813 C   0  0  0  0  0  0  0  0  0  0  0  0
   -1.9865   -1.3677    5.6014 O   0  0  0  0  0  0  0  0  0  0  0  0
   -1.1495    0.5760    4.5000 C   0  0  0  0  0  0  0  0  0  0  0  0
   -1.4744    1.9898    4.3717 N   0  0  0  0  0  0  0  0  0  0  0  0
   -2.1233    2.6481    3.4070 C   0  0  0  0  0  0  0  0  0  0  0  0
   -2.1878    3.9477    3.6550 N   0  0  0  0  0  0  0  0  0  0  0  0
   -1.5073    4.0718    4.8483 N   0  0  0  0  0  0  0  0  0  0  0  0
   -1.0528    2.9246    5.2640 N   0  0  0  0  0  0  0  0  0  0  0  0
   -0.0671    0.4675    4.5718 H   0  0  0  0  0  0  0  0  0  0  0  0
   -1.4524    0.0727    3.5825 H   0  0  0  0  0  0  0  0  0  0  0  0
   -2.5266    2.1976    2.5122 H   0  0  0  0  0  0  0  0  0  0  0  0
  1  2  2  0
  2  3  1  0
  2  4  1  0
  4  5  1  0
  4 10  1  0
  4 11  1  0
  5  9  1  0
  5  6  1  0
  6  7  2  0
  6 12  1  0
  7  8  1  0
  8  9  2  0
M  CHG  1   3  -1
M  END
>  <i_m_ct_stereo_status>  (212) 
1

>  <s_m_source_file>  (212) 
/var/tmp/pbs.5076255.sched01/tmpavn81tjv/78c0r2i372.sdf

>  <i_m_source_file_index>  (212) 
5

>  <i_lp_mmshare_version>  (212) 
48012

>  <i_f3d_flags>  (212) 
0

>  <s_epik_input>  (212) 
Tz1DKFtPSF0pW0NIMl1uMVtjSF1ubm4x

>  <s_epik_cmdline>  (212) 
J2VwaWtfcHl0aG9uJywgJy1waHQnLCAnMi4wJywgJy1waCcsICc3LjAnLCAnLXRuJywgJzgnLCAnLW1hJywgJzIwMCcsICctaW1hZScsICc8aW5maWxlLm1hZT4nLCAnLW9tYWUnLCAnPG91dGZpbGUubWFlPic=

>  <r_lp_tautomer_probability>  (212) 
1

>  <r_epik_Ionization_Penalty>  (212) 
2.11248e-05

>  <r_epik_Ionization_Penalty_Charging>  (212) 
2.11188e-05

>  <r_epik_Ionization_Penalty_Neutral>  (212) 
5.9043e-09

>  <r_epik_State_Penalty>  (212) 
-0

>  <r_epik_Charging_Adjusted_Penalty>  (212) 
2.11188e-05

>  <i_epik_Tot_Q>  (212) 
-1

>  <i_epik_Tot_abs_Q>  (212) 
1

>  <s_lp_Force_Field>  (212) 
OPLS3e

>  <r_lp_Energy>  (212) 
-0.439956

>  <b_lp_Chiralities_Consistent>  (212) 
1

>  <s_lp_Variant>  (212) 
65:0-1

>  <s_i_glide_gridfile>  (212) 
pfpi4k_grid

>  <i_i_glide_lignum>  (212) 
5

>  <i_i_glide_rotatable_bonds>  (212) 
2

>  <r_i_docking_score>  (212) 
-4.44801

>  <r_i_glide_ligand_efficiency>  (212) 
-0.494223

>  <r_i_glide_ligand_efficiency_sa>  (212) 
-1.02803

>  <r_i_glide_ligand_efficiency_ln>  (212) 
-1.39121

>  <r_i_glide_gscore>  (212) 
-4.44801

>  <r_i_glide_lipo>  (212) 
0

>  <r_i_glide_hbond>  (212) 
-0.207881

>  <r_i_glide_metal>  (212) 
-0

>  <r_i_glide_rewards>  (212) 
-2.25

>  <r_i_glide_evdw>  (212) 
-9.75905

>  <r_i_glide_ecoul>  (212) 
-8.18288

>  <r_i_glide_erotb>  (212) 
0

>  <r_i_glide_esite>  (212) 
-0.274745

>  <r_i_glide_emodel>  (212) 
-27.5743

>  <r_i_glide_energy>  (212) 
-17.9419

>  <r_i_glide_einternal>  (212) 
0.492353

>  <r_i_glide_intrahb_reward>  (212) 
-0

>  <i_i_glide_confnum>  (212) 
1

>  <i_i_glide_posenum>  (212) 
21

>  <r_i_glide_eff_state_penalty>  (212) 
0

>  <ligand_id>  (212) 
65

>  <original_smiles>  (212) 
O=C(O)Cn1cnnn1

>  <smiles>  (212) 
[H]c1nnnn1C([H])([H])C(=O)[O-]

$$$$
65:0:1
     RDKit          3D

 12 12  0  0  1  0  0  0  0  0999 V2000
    4.2024   -2.2552   -4.2977 O   0  0  0  0  0  0  0  0  0  0  0  0
    4.0864   -1.5210   -3.2916 C   0  0  0  0  0  0  0  0  0  0  0  0
    4.2126   -0.2768   -3.2934 O   0  0  0  0  0  0  0  0  0  0  0  0
    3.7763   -2.2024   -1.9551 C   0  0  0  0  0  0  0  0  0  0  0  0
    4.4732   -1.6073   -0.8309 N   0  0  0  0  0  0  0  0  0  0  0  0
    4.0079   -0.8968    0.1972 C   0  0  0  0  0  0  0  0  0  0  0  0
    4.9800   -0.5547    1.0353 N   0  0  0  0  0  0  0  0  0  0  0  0
    6.1056   -1.1021    0.4520 N   0  0  0  0  0  0  0  0  0  0  0  0
    5.8132   -1.7372   -0.6525 N   0  0  0  0  0  0  0  0  0  0  0  0
    2.7019   -2.1306   -1.7809 H   0  0  0  0  0  0  0  0  0  0  0  0
    4.0162   -3.2697   -1.9991 H   0  0  0  0  0  0  0  0  0  0  0  0
    2.9687   -0.6446    0.3452 H   0  0  0  0  0  0  0  0  0  0  0  0
  1  2  2  0
  2  3  1  0
  2  4  1  0
  4  5  1  0
  4 10  1  0
  4 11  1  0
  5  9  1  0
  5  6  1  0
  6  7  2  0
  6 12  1  0
  7  8  1  0
  8  9  2  0
M  CHG  1   3  -1
M  END
>  <i_m_ct_stereo_status>  (213) 
1

>  <s_m_source_file>  (213) 
/var/tmp/pbs.5076255.sched01/tmpavn81tjv/78c0r2i372.sdf

>  <i_m_source_file_index>  (213) 
5

>  <i_lp_mmshare_version>  (213) 
48012

>  <i_f3d_flags>  (213) 
0

>  <s_epik_input>  (213) 
Tz1DKFtPSF0pW0NIMl1uMVtjSF1ubm4x

>  <s_epik_cmdline>  (213) 
J2VwaWtfcHl0aG9uJywgJy1waHQnLCAnMi4wJywgJy1waCcsICc3LjAnLCAnLXRuJywgJzgnLCAnLW1hJywgJzIwMCcsICctaW1hZScsICc8aW5maWxlLm1hZT4nLCAnLW9tYWUnLCAnPG91dGZpbGUubWFlPic=

>  <r_lp_tautomer_probability>  (213) 
1

>  <r_epik_Ionization_Penalty>  (213) 
2.11248e-05

>  <r_epik_Ionization_Penalty_Charging>  (213) 
2.11188e-05

>  <r_epik_Ionization_Penalty_Neutral>  (213) 
5.9043e-09

>  <r_epik_State_Penalty>  (213) 
-0

>  <r_epik_Charging_Adjusted_Penalty>  (213) 
2.11188e-05

>  <i_epik_Tot_Q>  (213) 
-1

>  <i_epik_Tot_abs_Q>  (213) 
1

>  <s_lp_Force_Field>  (213) 
OPLS3e

>  <r_lp_Energy>  (213) 
-0.439956

>  <b_lp_Chiralities_Consistent>  (213) 
1

>  <s_lp_Variant>  (213) 
65:0-1

>  <s_i_glide_gridfile>  (213) 
pfpi4k_grid

>  <i_i_glide_lignum>  (213) 
5

>  <i_i_glide_rotatable_bonds>  (213) 
2

>  <r_i_docking_score>  (213) 
-3.98872

>  <r_i_glide_ligand_efficiency>  (213) 
-0.443191

>  <r_i_glide_ligand_efficiency_sa>  (213) 
-0.921874

>  <r_i_glide_ligand_efficiency_ln>  (213) 
-1.24756

>  <r_i_glide_gscore>  (213) 
-3.98872

>  <r_i_glide_lipo>  (213) 
0

>  <r_i_glide_hbond>  (213) 
-0.16

>  <r_i_glide_metal>  (213) 
-0

>  <r_i_glide_rewards>  (213) 
-2.41751

>  <r_i_glide_evdw>  (213) 
-13.6043

>  <r_i_glide_ecoul>  (213) 
-4.24639

>  <r_i_glide_erotb>  (213) 
0

>  <r_i_glide_esite>  (213) 
-0.0940405

>  <r_i_glide_emodel>  (213) 
-26.4604

>  <r_i_glide_energy>  (213) 
-17.8507

>  <r_i_glide_einternal>  (213) 
0.683618

>  <r_i_glide_intrahb_reward>  (213) 
-0

>  <i_i_glide_confnum>  (213) 
1

>  <i_i_glide_posenum>  (213) 
16

>  <r_i_glide_eff_state_penalty>  (213) 
0

>  <ligand_id>  (213) 
65

>  <original_smiles>  (213) 
O=C(O)Cn1cnnn1

>  <smiles>  (213) 
[H]c1nnnn1C([H])([H])C(=O)[O-]

$$$$
65:0:2
     RDKit          3D

 12 12  0  0  1  0  0  0  0  0999 V2000
    4.2150   -1.3131   -4.3060 O   0  0  0  0  0  0  0  0  0  0  0  0
    4.0581   -2.4246   -3.7555 C   0  0  0  0  0  0  0  0  0  0  0  0
    4.2016   -3.5317   -4.3158 O   0  0  0  0  0  0  0  0  0  0  0  0
    3.6885   -2.4296   -2.2765 C   0  0  0  0  0  0  0  0  0  0  0  0
    4.8093   -2.0803   -1.4221 N   0  0  0  0  0  0  0  0  0  0  0  0
    4.9631   -1.0667   -0.5665 C   0  0  0  0  0  0  0  0  0  0  0  0
    6.1232   -1.1343    0.0672 N   0  0  0  0  0  0  0  0  0  0  0  0
    6.7022   -2.2777   -0.4492 N   0  0  0  0  0  0  0  0  0  0  0  0
    5.9255   -2.8460   -1.3257 N   0  0  0  0  0  0  0  0  0  0  0  0
    2.8817   -1.7134   -2.1140 H   0  0  0  0  0  0  0  0  0  0  0  0
    3.3136   -3.4118   -1.9888 H   0  0  0  0  0  0  0  0  0  0  0  0
    4.2228   -0.2981   -0.3958 H   0  0  0  0  0  0  0  0  0  0  0  0
  1  2  2  0
  2  3  1  0
  2  4  1  0
  4  5  1  0
  4 10  1  0
  4 11  1  0
  5  9  1  0
  5  6  1  0
  6  7  2  0
  6 12  1  0
  7  8  1  0
  8  9  2  0
M  CHG  1   3  -1
M  END
>  <i_m_ct_stereo_status>  (214) 
1

>  <s_m_source_file>  (214) 
/var/tmp/pbs.5076255.sched01/tmpavn81tjv/78c0r2i372.sdf

>  <i_m_source_file_index>  (214) 
5

>  <i_lp_mmshare_version>  (214) 
48012

>  <i_f3d_flags>  (214) 
0

>  <s_epik_input>  (214) 
Tz1DKFtPSF0pW0NIMl1uMVtjSF1ubm4x

>  <s_epik_cmdline>  (214) 
J2VwaWtfcHl0aG9uJywgJy1waHQnLCAnMi4wJywgJy1waCcsICc3LjAnLCAnLXRuJywgJzgnLCAnLW1hJywgJzIwMCcsICctaW1hZScsICc8aW5maWxlLm1hZT4nLCAnLW9tYWUnLCAnPG91dGZpbGUubWFlPic=

>  <r_lp_tautomer_probability>  (214) 
1

>  <r_epik_Ionization_Penalty>  (214) 
2.11248e-05

>  <r_epik_Ionization_Penalty_Charging>  (214) 
2.11188e-05

>  <r_epik_Ionization_Penalty_Neutral>  (214) 
5.9043e-09

>  <r_epik_State_Penalty>  (214) 
-0

>  <r_epik_Charging_Adjusted_Penalty>  (214) 
2.11188e-05

>  <i_epik_Tot_Q>  (214) 
-1

>  <i_epik_Tot_abs_Q>  (214) 
1

>  <s_lp_Force_Field>  (214) 
OPLS3e

>  <r_lp_Energy>  (214) 
-0.439956

>  <b_lp_Chiralities_Consistent>  (214) 
1

>  <s_lp_Variant>  (214) 
65:0-1

>  <s_i_glide_gridfile>  (214) 
pfpi4k_grid

>  <i_i_glide_lignum>  (214) 
5

>  <i_i_glide_rotatable_bonds>  (214) 
2

>  <r_i_docking_score>  (214) 
-3.98748

>  <r_i_glide_ligand_efficiency>  (214) 
-0.443053

>  <r_i_glide_ligand_efficiency_sa>  (214) 
-0.921588

>  <r_i_glide_ligand_efficiency_ln>  (214) 
-1.24717

>  <r_i_glide_gscore>  (214) 
-3.98748

>  <r_i_glide_lipo>  (214) 
0

>  <r_i_glide_hbond>  (214) 
-0.178236

>  <r_i_glide_metal>  (214) 
-0

>  <r_i_glide_rewards>  (214) 
-2.43269

>  <r_i_glide_evdw>  (214) 
-13.832

>  <r_i_glide_ecoul>  (214) 
-3.92915

>  <r_i_glide_erotb>  (214) 
0

>  <r_i_glide_esite>  (214) 
-0.0955789

>  <r_i_glide_emodel>  (214) 
-26.1034

>  <r_i_glide_energy>  (214) 
-17.7611

>  <r_i_glide_einternal>  (214) 
1.1893

>  <r_i_glide_intrahb_reward>  (214) 
-0

>  <i_i_glide_confnum>  (214) 
1

>  <i_i_glide_posenum>  (214) 
3

>  <r_i_glide_eff_state_penalty>  (214) 
0

>  <ligand_id>  (214) 
65

>  <original_smiles>  (214) 
O=C(O)Cn1cnnn1

>  <smiles>  (214) 
[H]c1nnnn1C([H])([H])C(=O)[O-]

$$$$
66:0:0
     RDKit          3D

 72 77  0  0  1  0  0  0  0  0999 V2000
    4.6397   -3.6089    7.6688 C   0  0  0  0  0  0  0  0  0  0  0  0
    4.1059   -4.3554    6.6733 C   0  0  0  0  0  0  0  0  0  0  0  0
    4.8945   -5.2547    5.7424 C   0  0  1  0  0  0  0  0  0  0  0  0
    6.2735   -5.3794    6.0715 O   0  0  0  0  0  0  0  0  0  0  0  0
    4.0460   -6.5591    5.6399 C   0  0  1  0  0  0  0  0  0  0  0  0
    4.6318   -7.4173    6.8182 C   0  0  0  0  0  0  0  0  0  0  0  0
    2.6156   -6.0922    6.0712 C   0  0  2  0  0  0  0  0  0  0  0  0
    1.4397   -6.8580    5.3929 C   0  0  1  0  0  0  0  0  0  0  0  0
    0.9126   -6.2561    4.2468 O   0  0  0  0  0  0  0  0  0  0  0  0
    1.8376   -8.3510    5.1647 C   0  0  1  0  0  0  0  0  0  0  0  0
    0.7548   -9.4445    5.0827 C   0  0  1  0  0  0  0  0  0  0  0  0
   -0.5598   -9.0059    4.7952 O   0  0  0  0  0  0  0  0  0  0  0  0
    1.3790  -10.5286    4.1922 C   0  0  2  0  0  0  0  0  0  0  0  0
    2.4830  -10.9706    5.0697 O   0  0  0  0  0  0  0  0  0  0  0  0
    3.5168  -10.0411    5.3382 C   0  0  0  0  0  0  0  0  0  0  0  0
    4.4899  -10.2455    6.0552 O   0  0  0  0  0  0  0  0  0  0  0  0
    3.2495   -8.7694    4.4676 C   0  0  1  0  0  0  0  0  0  0  0  0
    3.3814   -9.6063    3.1088 C   0  0  1  0  0  0  0  0  0  0  0  0
    4.3180  -10.6809    2.9151 O   0  0  0  0  0  0  0  0  0  0  0  0
    1.9815   -9.9905    2.8126 C   0  0  2  0  0  0  0  0  0  0  0  0
    1.4713   -8.6958    2.0779 C   0  0  1  0  0  0  0  0  0  0  0  0
    0.0930   -8.4354    2.2451 O   0  0  0  0  0  0  0  0  0  0  0  0
    2.4130   -7.4106    1.8375 C   0  0  1  0  0  0  0  0  0  0  0  0
    1.6207   -6.2491    1.2641 C   0  0  0  0  0  0  0  0  0  0  0  0
    0.7096   -6.3122    0.4338 O   0  0  0  0  0  0  0  0  0  0  0  0
    2.1887   -5.0526    1.7669 C   0  0  0  0  0  0  0  0  0  0  0  0
    3.2969   -5.2275    2.5467 C   0  0  0  0  0  0  0  0  0  0  0  0
    4.1853   -4.4036    2.7688 O   0  0  0  0  0  0  0  0  0  0  0  0
    3.6387   -6.7542    2.7536 C   0  0  2  0  0  0  0  0  0  0  0  0
    4.9712   -6.8801    1.9359 C   0  0  0  0  0  0  0  0  0  0  0  0
    4.0271   -7.4059    4.2618 C   0  0  1  0  0  0  0  0  0  0  0  0
    2.6221   -4.5497    6.3611 C   0  0  1  0  0  0  0  0  0  0  0  0
    1.7372   -4.1626    7.5831 C   0  0  0  0  0  0  0  0  0  0  0  0
    2.3667   -3.7163    5.2114 O   0  0  0  0  0  0  0  0  0  0  0  0
    1.1533   -3.2388    4.7881 C   0  0  0  0  0  0  0  0  0  0  0  0
    0.0675   -3.5006    5.3003 O   0  0  0  0  0  0  0  0  0  0  0  0
    1.2815   -2.3778    3.5932 C   0  0  0  0  0  0  0  0  0  0  0  0
    2.4727   -2.0396    3.0647 C   0  0  0  0  0  0  0  0  0  0  0  0
    2.6651   -1.2520    1.7847 C   0  0  0  0  0  0  0  0  0  0  0  0
    4.0251   -3.0281    8.3381 H   0  0  0  0  0  0  0  0  0  0  0  0
    5.7069   -3.5838    7.8349 H   0  0  0  0  0  0  0  0  0  0  0  0
    4.9456   -4.6893    4.8514 H   0  0  0  0  0  0  0  0  0  0  0  0
    6.3637   -5.9425    6.8223 H   0  0  0  0  0  0  0  0  0  0  0  0
    3.9371   -8.1515    7.2160 H   0  0  0  0  0  0  0  0  0  0  0  0
    4.8814   -6.8167    7.6947 H   0  0  0  0  0  0  0  0  0  0  0  0
    5.5438   -7.9397    6.5255 H   0  0  0  0  0  0  0  0  0  0  0  0
    2.5118   -6.4646    7.0924 H   0  0  0  0  0  0  0  0  0  0  0  0
    0.6013   -6.8315    6.0902 H   0  0  0  0  0  0  0  0  0  0  0  0
    1.5645   -6.2688    3.5610 H   0  0  0  0  0  0  0  0  0  0  0  0
    2.0393   -8.4912    6.2286 H   0  0  0  0  0  0  0  0  0  0  0  0
    0.6173   -9.8986    6.0692 H   0  0  0  0  0  0  0  0  0  0  0  0
   -1.1469   -9.7640    4.8809 H   0  0  0  0  0  0  0  0  0  0  0  0
    0.6827  -11.3526    4.0235 H   0  0  0  0  0  0  0  0  0  0  0  0
    3.8575   -9.1185    2.2852 H   0  0  0  0  0  0  0  0  0  0  0  0
    4.2150  -11.0460    2.0408 H   0  0  0  0  0  0  0  0  0  0  0  0
    2.0031  -10.8088    2.1019 H   0  0  0  0  0  0  0  0  0  0  0  0
    1.4402   -9.0621    1.0514 H   0  0  0  0  0  0  0  0  0  0  0  0
   -0.3862   -9.1543    1.8611 H   0  0  0  0  0  0  0  0  0  0  0  0
    2.9573   -7.7246    0.9406 H   0  0  0  0  0  0  0  0  0  0  0  0
    1.8869   -4.1012    1.3741 H   0  0  0  0  0  0  0  0  0  0  0  0
    5.4001   -7.8760    1.8495 H   0  0  0  0  0  0  0  0  0  0  0  0
    5.7593   -6.2901    2.4011 H   0  0  0  0  0  0  0  0  0  0  0  0
    4.8465   -6.4744    0.9315 H   0  0  0  0  0  0  0  0  0  0  0  0
    5.0682   -7.7094    4.1802 H   0  0  0  0  0  0  0  0  0  0  0  0
    2.0968   -4.6038    8.5153 H   0  0  0  0  0  0  0  0  0  0  0  0
    0.7124   -4.5119    7.4576 H   0  0  0  0  0  0  0  0  0  0  0  0
    1.6999   -3.0817    7.7229 H   0  0  0  0  0  0  0  0  0  0  0  0
    0.3576   -2.0482    3.1306 H   0  0  0  0  0  0  0  0  0  0  0  0
    3.4006   -2.3582    3.5274 H   0  0  0  0  0  0  0  0  0  0  0  0
    3.1534   -1.8833    1.0389 H   0  0  0  0  0  0  0  0  0  0  0  0
    3.3109   -0.4008    1.9759 H   0  0  0  0  0  0  0  0  0  0  0  0
    1.7171   -0.9103    1.3625 H   0  0  0  0  0  0  0  0  0  0  0  0
  1  2  2  0
  1 40  1  0
  1 41  1  0
  2 32  1  0
  2  3  1  0
  3  4  1  0
  3  5  1  0
  3 42  1  6
  4 43  1  0
  5 31  1  0
  5  6  1  1
  5  7  1  0
  6 44  1  0
  6 45  1  0
  6 46  1  0
  7  8  1  0
  7 32  1  0
  7 47  1  1
  8  9  1  0
  8 10  1  0
  8 48  1  1
  9 49  1  0
 10 17  1  0
 10 11  1  0
 10 50  1  1
 11 12  1  0
 11 13  1  0
 11 51  1  1
 12 52  1  0
 13 20  1  0
 13 14  1  0
 13 53  1  6
 14 15  1  0
 15 16  2  0
 17 15  1  1
 17 31  1  0
 17 18  1  0
 18 19  1  0
 18 20  1  0
 18 54  1  6
 19 55  1  0
 20 21  1  0
 20 56  1  6
 21 22  1  0
 21 57  1  6
 21 23  1  0
 22 58  1  0
 23 59  1  6
 23 29  1  0
 23 24  1  0
 24 26  1  0
 24 25  2  0
 26 27  2  0
 26 60  1  0
 27 29  1  0
 27 28  1  0
 29 30  1  6
 29 31  1  0
 30 61  1  0
 30 62  1  0
 30 63  1  0
 31 64  1  6
 32 33  1  0
 32 34  1  6
 33 65  1  0
 33 66  1  0
 33 67  1  0
 34 35  1  0
 35 36  2  0
 35 37  1  0
 37 38  2  3
 37 68  1  0
 38 39  1  0
 38 69  1  0
 39 70  1  0
 39 71  1  0
 39 72  1  0
M  CHG  1  28  -1
M  END
>  <i_m_ct_stereo_status>  (215) 
1

>  <s_m_source_file>  (215) 
/var/tmp/pbs.5076255.sched01/tmpavn81tjv/78c0r2i372.sdf

>  <i_m_source_file_index>  (215) 
6

>  <i_lp_mmshare_version>  (215) 
48012

>  <i_f3d_flags>  (215) 
0

>  <s_epik_input>  (215) 
W0NIM11cW0NIXT1bQ0hdXEMoPU8pT1tDQF0xKFtDSDNdKUMoPVtDSDJdKVtDQEBIXShbT0hdKVtDQEBdKFtDSDNdKShbQ0BASF0xW0NAQEhdKFtPSF0pW0NAQEhdMltDQEBdMzQ1KVtDQEBIXTVbQ0BAXTYoW0NIM10pW0NASF0oQyg9TylbQ0gyXUM2PU8pW0NASF0oW09IXSlbQ0BASF0oW0NAQEhdNFtPSF0pW0NASF0oW0NAQEhdMltPSF0pT0MzPU8=

>  <s_epik_cmdline>  (215) 
J2VwaWtfcHl0aG9uJywgJy1waHQnLCAnMi4wJywgJy1waCcsICc3LjAnLCAnLXRuJywgJzgnLCAnLW1hJywgJzIwMCcsICctaW1hZScsICc8aW5maWxlLm1hZT4nLCAnLW9tYWUnLCAnPG91dGZpbGUubWFlPic=

>  <r_lp_tautomer_probability>  (215) 
1

>  <r_epik_Ionization_Penalty>  (215) 
2.06752

>  <r_epik_Ionization_Penalty_Charging>  (215) 
0.00705976

>  <r_epik_Ionization_Penalty_Neutral>  (215) 
2.06046

>  <r_epik_State_Penalty>  (215) 
0.529051

>  <r_epik_Charging_Adjusted_Penalty>  (215) 
0.53611

>  <i_epik_Tot_Q>  (215) 
-1

>  <i_epik_Tot_abs_Q>  (215) 
1

>  <s_epik_Chemistry_Notes>  (215) 
This compound has an ester and may undergo hydrolysis at high or low pH.

>  <s_lp_Force_Field>  (215) 
OPLS3e

>  <r_lp_Energy>  (215) 
200.801

>  <b_lp_Chiralities_Consistent>  (215) 
1

>  <s_lp_Variant>  (215) 
66:0-1

>  <s_i_glide_gridfile>  (215) 
pfpi4k_grid

>  <i_i_glide_lignum>  (215) 
6

>  <i_i_glide_rotatable_bonds>  (215) 
8

>  <r_i_docking_score>  (215) 
-3.3165

>  <r_i_glide_ligand_efficiency>  (215) 
-0.0850383

>  <r_i_glide_ligand_efficiency_sa>  (215) 
-0.288383

>  <r_i_glide_ligand_efficiency_ln>  (215) 
-0.711151

>  <r_i_glide_gscore>  (215) 
-3.3165

>  <r_i_glide_lipo>  (215) 
-0.148734

>  <r_i_glide_hbond>  (215) 
-0.241006

>  <r_i_glide_metal>  (215) 
-0

>  <r_i_glide_rewards>  (215) 
-0.0173932

>  <r_i_glide_evdw>  (215) 
-25.365

>  <r_i_glide_ecoul>  (215) 
-11.8038

>  <r_i_glide_erotb>  (215) 
0.208697

>  <r_i_glide_esite>  (215) 
-0.0792409

>  <r_i_glide_emodel>  (215) 
-45.474

>  <r_i_glide_energy>  (215) 
-37.1688

>  <r_i_glide_einternal>  (215) 
1.7231

>  <r_i_glide_intrahb_reward>  (215) 
-0

>  <i_i_glide_confnum>  (215) 
1

>  <i_i_glide_posenum>  (215) 
8

>  <r_i_glide_eff_state_penalty>  (215) 
0

>  <ligand_id>  (215) 
66

>  <original_smiles>  (215) 
C=C1C(O)C2(C)C(C(O)C3C(O)C4OC(=O)C35C(O)C4C(O)C3C(=O)CC(=O)C3(C)C25)C1(C)OC(=O)C=CC

>  <smiles>  (215) 
[H]OC1([H])C(=C([H])[H])C(OC(=O)C([H])=C([H])C([H])([H])[H])(C([H])([H])[H])C2([H])C([H])(O[H])C3([H])C([H])(O[H])C4([H])OC(=O)C35C([H])(O[H])C4([H])C([H])(O[H])C3([H])C(=O)C([H])=C([O-])C3(C([H])([H])[H])C5([H])C12C([H])([H])[H]

$$$$
66:0:1
     RDKit          3D

 72 77  0  0  1  0  0  0  0  0999 V2000
    2.6142   -3.2966    8.2781 C   0  0  0  0  0  0  0  0  0  0  0  0
    2.4687   -3.9909    7.1538 C   0  0  0  0  0  0  0  0  0  0  0  0
    3.5824   -4.8099    6.4991 C   0  0  1  0  0  0  0  0  0  0  0  0
    4.7945   -4.8543    7.2459 O   0  0  0  0  0  0  0  0  0  0  0  0
    2.9212   -6.1698    6.1125 C   0  0  1  0  0  0  0  0  0  0  0  0
    3.2241   -7.0408    7.3878 C   0  0  0  0  0  0  0  0  0  0  0  0
    1.3920   -5.8430    6.1203 C   0  0  2  0  0  0  0  0  0  0  0  0
    0.5432   -6.6739    5.1147 C   0  0  1  0  0  0  0  0  0  0  0  0
    0.2930   -6.0172    3.8986 O   0  0  0  0  0  0  0  0  0  0  0  0
    1.1422   -8.1210    4.9382 C   0  0  1  0  0  0  0  0  0  0  0  0
    0.2583   -9.3115    4.5355 C   0  0  1  0  0  0  0  0  0  0  0  0
   -0.9871   -9.0314    3.9266 O   0  0  0  0  0  0  0  0  0  0  0  0
    1.1985  -10.2902    3.8345 C   0  0  2  0  0  0  0  0  0  0  0  0
    2.0301  -10.6688    4.9985 O   0  0  0  0  0  0  0  0  0  0  0  0
    2.8466   -9.6452    5.5819 C   0  0  0  0  0  0  0  0  0  0  0  0
    3.6041   -9.7950    6.5274 O   0  0  0  0  0  0  0  0  0  0  0  0
    2.7169   -8.3750    4.6969 C   0  0  1  0  0  0  0  0  0  0  0  0
    3.3244   -9.1387    3.4326 C   0  0  1  0  0  0  0  0  0  0  0  0
    4.3584  -10.1267    3.5314 O   0  0  0  0  0  0  0  0  0  0  0  0
    2.1329   -9.6471    2.7081 C   0  0  2  0  0  0  0  0  0  0  0  0
    1.7489   -8.3740    1.8774 C   0  0  1  0  0  0  0  0  0  0  0  0
    0.3594   -8.2283    1.6830 O   0  0  0  0  0  0  0  0  0  0  0  0
    2.5797   -6.9910    1.9756 C   0  0  1  0  0  0  0  0  0  0  0  0
    1.8752   -5.8840    1.2121 C   0  0  0  0  0  0  0  0  0  0  0  0
    1.2475   -6.0320    0.1594 O   0  0  0  0  0  0  0  0  0  0  0  0
    2.0955   -4.6532    1.8991 C   0  0  0  0  0  0  0  0  0  0  0  0
    2.9342   -4.7687    2.9677 C   0  0  0  0  0  0  0  0  0  0  0  0
    3.6087   -3.8792    3.5130 O   0  0  0  0  0  0  0  0  0  0  0  0
    3.3724   -6.2566    3.2338 C   0  0  2  0  0  0  0  0  0  0  0  0
    4.8906   -6.1939    2.8525 C   0  0  0  0  0  0  0  0  0  0  0  0
    3.3753   -6.9522    4.7657 C   0  0  1  0  0  0  0  0  0  0  0  0
    1.1339   -4.3302    6.4422 C   0  0  1  0  0  0  0  0  0  0  0  0
   -0.1156   -4.1894    7.3648 C   0  0  0  0  0  0  0  0  0  0  0  0
    0.9726   -3.5452    5.2373 O   0  0  0  0  0  0  0  0  0  0  0  0
    0.8194   -2.1806    5.2081 C   0  0  0  0  0  0  0  0  0  0  0  0
    0.5590   -1.4738    6.1898 O   0  0  0  0  0  0  0  0  0  0  0  0
    1.0269   -1.6137    3.8582 C   0  0  0  0  0  0  0  0  0  0  0  0
    0.7407   -0.3306    3.5831 C   0  0  0  0  0  0  0  0  0  0  0  0
    0.9373    0.3137    2.2303 C   0  0  0  0  0  0  0  0  0  0  0  0
    1.7704   -2.8195    8.7535 H   0  0  0  0  0  0  0  0  0  0  0  0
    3.5740   -3.2028    8.7726 H   0  0  0  0  0  0  0  0  0  0  0  0
    3.8720   -4.2097    5.6908 H   0  0  0  0  0  0  0  0  0  0  0  0
    4.6996   -5.4404    7.9753 H   0  0  0  0  0  0  0  0  0  0  0  0
    2.5225   -7.8562    7.5390 H   0  0  0  0  0  0  0  0  0  0  0  0
    3.1377   -6.4705    8.3087 H   0  0  0  0  0  0  0  0  0  0  0  0
    4.2322   -7.4624    7.3629 H   0  0  0  0  0  0  0  0  0  0  0  0
    1.0523   -6.2929    7.0499 H   0  0  0  0  0  0  0  0  0  0  0  0
   -0.4560   -6.7891    5.5424 H   0  0  0  0  0  0  0  0  0  0  0  0
    1.1041   -5.9815    3.4126 H   0  0  0  0  0  0  0  0  0  0  0  0
    1.0453   -8.3039    6.0030 H   0  0  0  0  0  0  0  0  0  0  0  0
   -0.0906   -9.8222    5.4343 H   0  0  0  0  0  0  0  0  0  0  0  0
   -1.5656   -9.7440    4.1953 H   0  0  0  0  0  0  0  0  0  0  0  0
    0.6714  -11.1684    3.4616 H   0  0  0  0  0  0  0  0  0  0  0  0
    3.9816   -8.5754    2.7947 H   0  0  0  0  0  0  0  0  0  0  0  0
    4.4698  -10.5473    2.6939 H   0  0  0  0  0  0  0  0  0  0  0  0
    2.4403  -10.4391    2.0307 H   0  0  0  0  0  0  0  0  0  0  0  0
    2.0274   -8.7027    0.8801 H   0  0  0  0  0  0  0  0  0  0  0  0
    0.0911   -8.9008    1.0628 H   0  0  0  0  0  0  0  0  0  0  0  0
    3.3926   -7.1984    1.2745 H   0  0  0  0  0  0  0  0  0  0  0  0
    1.8240   -3.7125    1.4415 H   0  0  0  0  0  0  0  0  0  0  0  0
    5.4190   -7.1463    2.8751 H   0  0  0  0  0  0  0  0  0  0  0  0
    5.4458   -5.5553    3.5446 H   0  0  0  0  0  0  0  0  0  0  0  0
    5.0284   -5.7659    1.8598 H   0  0  0  0  0  0  0  0  0  0  0  0
    4.4309   -7.1600    4.9798 H   0  0  0  0  0  0  0  0  0  0  0  0
    0.0198   -4.7274    8.3108 H   0  0  0  0  0  0  0  0  0  0  0  0
   -0.9833   -4.5933    6.8425 H   0  0  0  0  0  0  0  0  0  0  0  0
   -0.3804   -3.1766    7.6790 H   0  0  0  0  0  0  0  0  0  0  0  0
    1.4279   -2.2560    3.0817 H   0  0  0  0  0  0  0  0  0  0  0  0
    0.3458    0.3210    4.3516 H   0  0  0  0  0  0  0  0  0  0  0  0
    1.6133    1.1671    2.3049 H   0  0  0  0  0  0  0  0  0  0  0  0
   -0.0157    0.6597    1.8301 H   0  0  0  0  0  0  0  0  0  0  0  0
    1.3642   -0.4059    1.5322 H   0  0  0  0  0  0  0  0  0  0  0  0
  1  2  2  0
  1 40  1  0
  1 41  1  0
  2 32  1  0
  2  3  1  0
  3  4  1  0
  3  5  1  0
  3 42  1  6
  4 43  1  0
  5 31  1  0
  5  6  1  1
  5  7  1  0
  6 44  1  0
  6 45  1  0
  6 46  1  0
  7  8  1  0
  7 32  1  0
  7 47  1  1
  8  9  1  0
  8 10  1  0
  8 48  1  1
  9 49  1  0
 10 17  1  0
 10 11  1  0
 10 50  1  1
 11 12  1  0
 11 13  1  0
 11 51  1  1
 12 52  1  0
 13 20  1  0
 13 14  1  0
 13 53  1  6
 14 15  1  0
 15 16  2  0
 17 15  1  1
 17 31  1  0
 17 18  1  0
 18 19  1  0
 18 20  1  0
 18 54  1  6
 19 55  1  0
 20 21  1  0
 20 56  1  6
 21 22  1  0
 21 57  1  6
 21 23  1  0
 22 58  1  0
 23 59  1  6
 23 29  1  0
 23 24  1  0
 24 26  1  0
 24 25  2  0
 26 27  2  0
 26 60  1  0
 27 29  1  0
 27 28  1  0
 29 30  1  6
 29 31  1  0
 30 61  1  0
 30 62  1  0
 30 63  1  0
 31 64  1  1
 32 33  1  0
 32 34  1  6
 33 65  1  0
 33 66  1  0
 33 67  1  0
 34 35  1  0
 35 36  2  0
 35 37  1  0
 37 38  2  3
 37 68  1  0
 38 39  1  0
 38 69  1  0
 39 70  1  0
 39 71  1  0
 39 72  1  0
M  CHG  1  28  -1
M  END
>  <i_m_ct_stereo_status>  (216) 
1

>  <s_m_source_file>  (216) 
/var/tmp/pbs.5076255.sched01/tmpavn81tjv/78c0r2i372.sdf

>  <i_m_source_file_index>  (216) 
6

>  <i_lp_mmshare_version>  (216) 
48012

>  <i_f3d_flags>  (216) 
0

>  <s_epik_input>  (216) 
W0NIM11cW0NIXT1bQ0hdXEMoPU8pT1tDQF0xKFtDSDNdKUMoPVtDSDJdKVtDQEBIXShbT0hdKVtDQEBdKFtDSDNdKShbQ0BASF0xW0NAQEhdKFtPSF0pW0NAQEhdMltDQEBdMzQ1KVtDQEBIXTVbQ0BAXTYoW0NIM10pW0NASF0oQyg9TylbQ0gyXUM2PU8pW0NASF0oW09IXSlbQ0BASF0oW0NAQEhdNFtPSF0pW0NASF0oW0NAQEhdMltPSF0pT0MzPU8=

>  <s_epik_cmdline>  (216) 
J2VwaWtfcHl0aG9uJywgJy1waHQnLCAnMi4wJywgJy1waCcsICc3LjAnLCAnLXRuJywgJzgnLCAnLW1hJywgJzIwMCcsICctaW1hZScsICc8aW5maWxlLm1hZT4nLCAnLW9tYWUnLCAnPG91dGZpbGUubWFlPic=

>  <r_lp_tautomer_probability>  (216) 
1

>  <r_epik_Ionization_Penalty>  (216) 
2.06752

>  <r_epik_Ionization_Penalty_Charging>  (216) 
0.00705976

>  <r_epik_Ionization_Penalty_Neutral>  (216) 
2.06046

>  <r_epik_State_Penalty>  (216) 
0.529051

>  <r_epik_Charging_Adjusted_Penalty>  (216) 
0.53611

>  <i_epik_Tot_Q>  (216) 
-1

>  <i_epik_Tot_abs_Q>  (216) 
1

>  <s_epik_Chemistry_Notes>  (216) 
This compound has an ester and may undergo hydrolysis at high or low pH.

>  <s_lp_Force_Field>  (216) 
OPLS3e

>  <r_lp_Energy>  (216) 
200.801

>  <b_lp_Chiralities_Consistent>  (216) 
1

>  <s_lp_Variant>  (216) 
66:0-1

>  <s_i_glide_gridfile>  (216) 
pfpi4k_grid

>  <i_i_glide_lignum>  (216) 
6

>  <i_i_glide_rotatable_bonds>  (216) 
8

>  <r_i_docking_score>  (216) 
-3.14576

>  <r_i_glide_ligand_efficiency>  (216) 
-0.0806606

>  <r_i_glide_ligand_efficiency_sa>  (216) 
-0.273537

>  <r_i_glide_ligand_efficiency_ln>  (216) 
-0.674541

>  <r_i_glide_gscore>  (216) 
-3.14576

>  <r_i_glide_lipo>  (216) 
-0.0638802

>  <r_i_glide_hbond>  (216) 
-0.283103

>  <r_i_glide_metal>  (216) 
-0

>  <r_i_glide_rewards>  (216) 
0

>  <r_i_glide_evdw>  (216) 
-25.4917

>  <r_i_glide_ecoul>  (216) 
-10.975

>  <r_i_glide_erotb>  (216) 
0.208697

>  <r_i_glide_esite>  (216) 
-0.0866312

>  <r_i_glide_emodel>  (216) 
-43.7871

>  <r_i_glide_energy>  (216) 
-36.4668

>  <r_i_glide_einternal>  (216) 
3.01495

>  <r_i_glide_intrahb_reward>  (216) 
-0

>  <i_i_glide_confnum>  (216) 
2

>  <i_i_glide_posenum>  (216) 
6

>  <r_i_glide_eff_state_penalty>  (216) 
0

>  <ligand_id>  (216) 
66

>  <original_smiles>  (216) 
C=C1C(O)C2(C)C(C(O)C3C(O)C4OC(=O)C35C(O)C4C(O)C3C(=O)CC(=O)C3(C)C25)C1(C)OC(=O)C=CC

>  <smiles>  (216) 
[H]OC1([H])C(=C([H])[H])C(OC(=O)C([H])=C([H])C([H])([H])[H])(C([H])([H])[H])C2([H])C([H])(O[H])C3([H])C([H])(O[H])C4([H])OC(=O)C35C([H])(O[H])C4([H])C([H])(O[H])C3([H])C(=O)C([H])=C([O-])C3(C([H])([H])[H])C5([H])C12C([H])([H])[H]

$$$$
66:0:2
     RDKit          3D

 72 77  0  0  1  0  0  0  0  0999 V2000
    1.4000   -3.4613    8.7272 C   0  0  0  0  0  0  0  0  0  0  0  0
    1.5293   -4.1080    7.5607 C   0  0  0  0  0  0  0  0  0  0  0  0
    2.8315   -4.6963    7.0378 C   0  0  1  0  0  0  0  0  0  0  0  0
    3.9301   -4.5794    7.9317 O   0  0  0  0  0  0  0  0  0  0  0  0
    2.4620   -6.1189    6.5210 C   0  0  1  0  0  0  0  0  0  0  0  0
    2.7304   -6.9989    7.7960 C   0  0  0  0  0  0  0  0  0  0  0  0
    0.9113   -6.0358    6.3140 C   0  0  2  0  0  0  0  0  0  0  0  0
    0.3474   -6.9555    5.1713 C   0  0  1  0  0  0  0  0  0  0  0  0
    0.1475   -6.3485    3.9256 O   0  0  0  0  0  0  0  0  0  0  0  0
    1.1933   -8.2708    5.0565 C   0  0  1  0  0  0  0  0  0  0  0  0
    0.5808   -9.5654    4.4801 C   0  0  1  0  0  0  0  0  0  0  0  0
   -0.5889   -9.4639    3.6914 O   0  0  0  0  0  0  0  0  0  0  0  0
    1.7709  -10.3307    3.8948 C   0  0  2  0  0  0  0  0  0  0  0  0
    2.4988  -10.6263    5.1450 O   0  0  0  0  0  0  0  0  0  0  0  0
    3.0310   -9.5450    5.8789 C   0  0  0  0  0  0  0  0  0  0  0  0
    3.6820   -9.6148    6.9113 O   0  0  0  0  0  0  0  0  0  0  0  0
    2.8101   -8.2622    5.0355 C   0  0  1  0  0  0  0  0  0  0  0  0
    3.7025   -8.8314    3.8374 C   0  0  1  0  0  0  0  0  0  0  0  0
    4.8883   -9.6128    4.0465 O   0  0  0  0  0  0  0  0  0  0  0  0
    2.7169   -9.4832    2.9304 C   0  0  2  0  0  0  0  0  0  0  0  0
    2.2388   -8.2459    2.0857 C   0  0  1  0  0  0  0  0  0  0  0  0
    0.8695   -8.2678    1.7390 O   0  0  0  0  0  0  0  0  0  0  0  0
    2.8102   -6.7500    2.3535 C   0  0  1  0  0  0  0  0  0  0  0  0
    2.0487   -5.7280    1.5346 C   0  0  0  0  0  0  0  0  0  0  0  0
    1.5837   -5.9109    0.4129 O   0  0  0  0  0  0  0  0  0  0  0  0
    1.9772   -4.5013    2.2647 C   0  0  0  0  0  0  0  0  0  0  0  0
    2.6514   -4.5533    3.4585 C   0  0  0  0  0  0  0  0  0  0  0  0
    3.0964   -3.5966    4.1195 O   0  0  0  0  0  0  0  0  0  0  0  0
    3.2931   -5.9668    3.7328 C   0  0  2  0  0  0  0  0  0  0  0  0
    4.8224   -5.6453    3.5693 C   0  0  0  0  0  0  0  0  0  0  0  0
    3.2147   -6.7405    5.2339 C   0  0  1  0  0  0  0  0  0  0  0  0
    0.3797   -4.5969    6.6601 C   0  0  1  0  0  0  0  0  0  0  0  0
   -0.9966   -4.6835    7.3812 C   0  0  0  0  0  0  0  0  0  0  0  0
    0.2706   -3.7778    5.4801 O   0  0  0  0  0  0  0  0  0  0  0  0
   -0.0234   -2.4239    5.5184 C   0  0  0  0  0  0  0  0  0  0  0  0
   -0.4710   -1.8173    6.4978 O   0  0  0  0  0  0  0  0  0  0  0  0
    0.2653   -1.7577    4.2318 C   0  0  0  0  0  0  0  0  0  0  0  0
   -0.0191   -0.4604    4.0189 C   0  0  0  0  0  0  0  0  0  0  0  0
    0.2705    0.2659    2.7227 C   0  0  0  0  0  0  0  0  0  0  0  0
    0.4351   -3.1437    9.0908 H   0  0  0  0  0  0  0  0  0  0  0  0
    2.2565   -3.2302    9.3498 H   0  0  0  0  0  0  0  0  0  0  0  0
    3.1129   -4.0162    6.2886 H   0  0  0  0  0  0  0  0  0  0  0  0
    3.8396   -5.2133    8.6309 H   0  0  0  0  0  0  0  0  0  0  0  0
    2.1594   -7.9233    7.8246 H   0  0  0  0  0  0  0  0  0  0  0  0
    2.4347   -6.4995    8.7191 H   0  0  0  0  0  0  0  0  0  0  0  0
    3.7880   -7.2521    7.9007 H   0  0  0  0  0  0  0  0  0  0  0  0
    0.5230   -6.5813    7.1737 H   0  0  0  0  0  0  0  0  0  0  0  0
   -0.6633   -7.2451    5.4612 H   0  0  0  0  0  0  0  0  0  0  0  0
    0.1277   -7.0487    3.2754 H   0  0  0  0  0  0  0  0  0  0  0  0
    0.9821   -8.5160    6.0960 H   0  0  0  0  0  0  0  0  0  0  0  0
    0.2139  -10.1736    5.3117 H   0  0  0  0  0  0  0  0  0  0  0  0
   -1.2380  -10.0517    4.0653 H   0  0  0  0  0  0  0  0  0  0  0  0
    1.4432  -11.2591    3.4219 H   0  0  0  0  0  0  0  0  0  0  0  0
    4.3258   -8.1316    3.3221 H   0  0  0  0  0  0  0  0  0  0  0  0
    4.6393  -10.4710    4.3799 H   0  0  0  0  0  0  0  0  0  0  0  0
    3.2398  -10.1766    2.2726 H   0  0  0  0  0  0  0  0  0  0  0  0
    2.7030   -8.4624    1.1189 H   0  0  0  0  0  0  0  0  0  0  0  0
    0.7041   -8.9975    1.1481 H   0  0  0  0  0  0  0  0  0  0  0  0
    3.7337   -6.7856    1.7727 H   0  0  0  0  0  0  0  0  0  0  0  0
    1.6498   -3.5880    1.8211 H   0  0  0  0  0  0  0  0  0  0  0  0
    5.4882   -6.5015    3.6300 H   0  0  0  0  0  0  0  0  0  0  0  0
    5.1649   -4.9642    4.3468 H   0  0  0  0  0  0  0  0  0  0  0  0
    5.0143   -5.1505    2.6198 H   0  0  0  0  0  0  0  0  0  0  0  0
    4.2468   -6.7888    5.5808 H   0  0  0  0  0  0  0  0  0  0  0  0
   -0.9180   -5.2078    8.3316 H   0  0  0  0  0  0  0  0  0  0  0  0
   -1.7128   -5.1983    6.7444 H   0  0  0  0  0  0  0  0  0  0  0  0
   -1.4464   -3.7294    7.6321 H   0  0  0  0  0  0  0  0  0  0  0  0
    0.7329   -2.3419    3.4543 H   0  0  0  0  0  0  0  0  0  0  0  0
   -0.4787    0.1365    4.7943 H   0  0  0  0  0  0  0  0  0  0  0  0
    0.9263    1.1180    2.8954 H   0  0  0  0  0  0  0  0  0  0  0  0
   -0.6527    0.6301    2.2751 H   0  0  0  0  0  0  0  0  0  0  0  0
    0.7519   -0.3975    2.0039 H   0  0  0  0  0  0  0  0  0  0  0  0
  1  2  2  0
  1 40  1  0
  1 41  1  0
  2 32  1  0
  2  3  1  0
  3  4  1  0
  3  5  1  0
  3 42  1  6
  4 43  1  0
  5 31  1  0
  5  6  1  1
  5  7  1  0
  6 44  1  0
  6 45  1  0
  6 46  1  0
  7  8  1  0
  7 32  1  0
  7 47  1  1
  8  9  1  0
  8 10  1  0
  8 48  1  1
  9 49  1  0
 10 17  1  0
 10 11  1  0
 10 50  1  1
 11 12  1  0
 11 13  1  0
 11 51  1  1
 12 52  1  0
 13 20  1  0
 13 14  1  0
 13 53  1  6
 14 15  1  0
 15 16  2  0
 17 15  1  1
 17 31  1  0
 17 18  1  0
 18 19  1  0
 18 20  1  0
 18 54  1  6
 19 55  1  0
 20 21  1  0
 20 56  1  6
 21 22  1  0
 21 57  1  6
 21 23  1  0
 22 58  1  0
 23 59  1  6
 23 29  1  0
 23 24  1  0
 24 26  1  0
 24 25  2  0
 26 27  2  0
 26 60  1  0
 27 29  1  0
 27 28  1  0
 29 30  1  6
 29 31  1  0
 30 61  1  0
 30 62  1  0
 30 63  1  0
 31 64  1  1
 32 33  1  0
 32 34  1  6
 33 65  1  0
 33 66  1  0
 33 67  1  0
 34 35  1  0
 35 36  2  0
 35 37  1  0
 37 38  2  3
 37 68  1  0
 38 39  1  0
 38 69  1  0
 39 70  1  0
 39 71  1  0
 39 72  1  0
M  CHG  1  28  -1
M  END
>  <i_m_ct_stereo_status>  (217) 
1

>  <s_m_source_file>  (217) 
/var/tmp/pbs.5076255.sched01/tmpavn81tjv/78c0r2i372.sdf

>  <i_m_source_file_index>  (217) 
6

>  <i_lp_mmshare_version>  (217) 
48012

>  <i_f3d_flags>  (217) 
0

>  <s_epik_input>  (217) 
W0NIM11cW0NIXT1bQ0hdXEMoPU8pT1tDQF0xKFtDSDNdKUMoPVtDSDJdKVtDQEBIXShbT0hdKVtDQEBdKFtDSDNdKShbQ0BASF0xW0NAQEhdKFtPSF0pW0NAQEhdMltDQEBdMzQ1KVtDQEBIXTVbQ0BAXTYoW0NIM10pW0NASF0oQyg9TylbQ0gyXUM2PU8pW0NASF0oW09IXSlbQ0BASF0oW0NAQEhdNFtPSF0pW0NASF0oW0NAQEhdMltPSF0pT0MzPU8=

>  <s_epik_cmdline>  (217) 
J2VwaWtfcHl0aG9uJywgJy1waHQnLCAnMi4wJywgJy1waCcsICc3LjAnLCAnLXRuJywgJzgnLCAnLW1hJywgJzIwMCcsICctaW1hZScsICc8aW5maWxlLm1hZT4nLCAnLW9tYWUnLCAnPG91dGZpbGUubWFlPic=

>  <r_lp_tautomer_probability>  (217) 
1

>  <r_epik_Ionization_Penalty>  (217) 
2.06752

>  <r_epik_Ionization_Penalty_Charging>  (217) 
0.00705976

>  <r_epik_Ionization_Penalty_Neutral>  (217) 
2.06046

>  <r_epik_State_Penalty>  (217) 
0.529051

>  <r_epik_Charging_Adjusted_Penalty>  (217) 
0.53611

>  <i_epik_Tot_Q>  (217) 
-1

>  <i_epik_Tot_abs_Q>  (217) 
1

>  <s_epik_Chemistry_Notes>  (217) 
This compound has an ester and may undergo hydrolysis at high or low pH.

>  <s_lp_Force_Field>  (217) 
OPLS3e

>  <r_lp_Energy>  (217) 
200.801

>  <b_lp_Chiralities_Consistent>  (217) 
1

>  <s_lp_Variant>  (217) 
66:0-1

>  <s_i_glide_gridfile>  (217) 
pfpi4k_grid

>  <i_i_glide_lignum>  (217) 
6

>  <i_i_glide_rotatable_bonds>  (217) 
8

>  <r_i_docking_score>  (217) 
-3.06866

>  <r_i_glide_ligand_efficiency>  (217) 
-0.0786837

>  <r_i_glide_ligand_efficiency_sa>  (217) 
-0.266833

>  <r_i_glide_ligand_efficiency_ln>  (217) 
-0.658008

>  <r_i_glide_gscore>  (217) 
-3.06866

>  <r_i_glide_lipo>  (217) 
-0.0177194

>  <r_i_glide_hbond>  (217) 
-0.117673

>  <r_i_glide_metal>  (217) 
-0

>  <r_i_glide_rewards>  (217) 
-0.5

>  <r_i_glide_evdw>  (217) 
-27.6532

>  <r_i_glide_ecoul>  (217) 
-7.85108

>  <r_i_glide_erotb>  (217) 
0.208697

>  <r_i_glide_esite>  (217) 
-0.0816482

>  <r_i_glide_emodel>  (217) 
-47.6987

>  <r_i_glide_energy>  (217) 
-35.5042

>  <r_i_glide_einternal>  (217) 
2.99127

>  <r_i_glide_intrahb_reward>  (217) 
-0.5

>  <i_i_glide_confnum>  (217) 
1

>  <i_i_glide_posenum>  (217) 
22

>  <r_i_glide_eff_state_penalty>  (217) 
0

>  <ligand_id>  (217) 
66

>  <original_smiles>  (217) 
C=C1C(O)C2(C)C(C(O)C3C(O)C4OC(=O)C35C(O)C4C(O)C3C(=O)CC(=O)C3(C)C25)C1(C)OC(=O)C=CC

>  <smiles>  (217) 
[H]OC1([H])C(=C([H])[H])C(OC(=O)C([H])=C([H])C([H])([H])[H])(C([H])([H])[H])C2([H])C([H])(O[H])C3([H])C([H])(O[H])C4([H])OC(=O)C35C([H])(O[H])C4([H])C([H])(O[H])C3([H])C(=O)C([H])=C([O-])C3(C([H])([H])[H])C5([H])C12C([H])([H])[H]

$$$$
66:1:0
     RDKit          3D

 72 77  0  0  1  0  0  0  0  0999 V2000
    1.6785   -3.9501    8.9062 C   0  0  0  0  0  0  0  0  0  0  0  0
    1.7276   -4.5330    7.7085 C   0  0  0  0  0  0  0  0  0  0  0  0
    3.0064   -5.0852    7.0801 C   0  0  1  0  0  0  0  0  0  0  0  0
    4.1497   -5.0213    7.9196 O   0  0  0  0  0  0  0  0  0  0  0  0
    2.6032   -6.4829    6.5037 C   0  0  1  0  0  0  0  0  0  0  0  0
    2.9603   -7.4280    7.7133 C   0  0  0  0  0  0  0  0  0  0  0  0
    1.0440   -6.4050    6.4032 C   0  0  2  0  0  0  0  0  0  0  0  0
    0.4137   -7.2649    5.2574 C   0  0  1  0  0  0  0  0  0  0  0  0
    0.1116   -6.5917    4.0602 O   0  0  0  0  0  0  0  0  0  0  0  0
    1.2670   -8.5616    5.0072 C   0  0  1  0  0  0  0  0  0  0  0  0
    0.6320   -9.8225    4.3945 C   0  0  1  0  0  0  0  0  0  0  0  0
   -0.5826   -9.6497    3.6739 O   0  0  0  0  0  0  0  0  0  0  0  0
    1.7784  -10.5496    3.6942 C   0  0  2  0  0  0  0  0  0  0  0  0
    2.5821  -10.9153    4.8859 O   0  0  0  0  0  0  0  0  0  0  0  0
    3.1550   -9.8452    5.6397 C   0  0  0  0  0  0  0  0  0  0  0  0
    3.8755   -9.9784    6.6182 O   0  0  0  0  0  0  0  0  0  0  0  0
    2.8714   -8.5265    4.8802 C   0  0  1  0  0  0  0  0  0  0  0  0
    3.6950   -9.0324    3.6102 C   0  0  1  0  0  0  0  0  0  0  0  0
    4.8954   -9.8130    3.7034 O   0  0  0  0  0  0  0  0  0  0  0  0
    2.6653   -9.6428    2.7243 C   0  0  2  0  0  0  0  0  0  0  0  0
    2.1326   -8.3616    1.9821 C   0  0  1  0  0  0  0  0  0  0  0  0
    0.7437   -8.3541    1.7341 O   0  0  0  0  0  0  0  0  0  0  0  0
    2.7091   -6.8842    2.2934 C   0  0  1  0  0  0  0  0  0  0  0  0
    1.8901   -5.8295    1.5815 C   0  0  0  0  0  0  0  0  0  0  0  0
    1.3977   -5.9498    0.4592 O   0  0  0  0  0  0  0  0  0  0  0  0
    1.8261   -4.6509    2.3988 C   0  0  0  0  0  0  0  0  0  0  0  0
    2.5828   -4.7655    3.5379 C   0  0  0  0  0  0  0  0  0  0  0  0
    3.0514   -3.8376    4.2149 O   0  0  0  0  0  0  0  0  0  0  0  0
    3.2555   -6.1718    3.6842 C   0  0  2  0  0  0  0  0  0  0  0  0
    4.7643   -5.8193    3.4474 C   0  0  0  0  0  0  0  0  0  0  0  0
    3.2746   -7.0275    5.1380 C   0  0  1  0  0  0  0  0  0  0  0  0
    0.5183   -5.0008    6.8599 C   0  0  1  0  0  0  0  0  0  0  0  0
   -0.7922   -5.1539    7.6863 C   0  0  0  0  0  0  0  0  0  0  0  0
    0.2934   -4.1299    5.7311 O   0  0  0  0  0  0  0  0  0  0  0  0
   -0.0423   -2.8037    5.8488 C   0  0  0  0  0  0  0  0  0  0  0  0
   -0.3869   -2.2617    6.9092 O   0  0  0  0  0  0  0  0  0  0  0  0
    0.0935   -2.0672    4.5740 C   0  0  0  0  0  0  0  0  0  0  0  0
   -0.4496   -0.8611    4.2820 C   0  0  0  0  0  0  0  0  0  0  0  0
   -1.3656    0.0263    5.1168 C   0  0  0  0  0  0  0  0  0  0  0  0
    0.7351   -3.6684    9.3506 H   0  0  0  0  0  0  0  0  0  0  0  0
    2.5711   -3.7551    9.4857 H   0  0  0  0  0  0  0  0  0  0  0  0
    3.2519   -4.3610    6.3603 H   0  0  0  0  0  0  0  0  0  0  0  0
    4.0988   -5.6891    8.5854 H   0  0  0  0  0  0  0  0  0  0  0  0
    2.3985   -8.3584    7.7231 H   0  0  0  0  0  0  0  0  0  0  0  0
    2.7161   -6.9837    8.6731 H   0  0  0  0  0  0  0  0  0  0  0  0
    4.0247   -7.6763    7.7339 H   0  0  0  0  0  0  0  0  0  0  0  0
    0.7235   -7.0012    7.2544 H   0  0  0  0  0  0  0  0  0  0  0  0
   -0.5748   -7.5878    5.5976 H   0  0  0  0  0  0  0  0  0  0  0  0
    0.0277   -7.2615    3.3817 H   0  0  0  0  0  0  0  0  0  0  0  0
    1.1203   -8.8686    6.0383 H   0  0  0  0  0  0  0  0  0  0  0  0
    0.3056  -10.4829    5.2013 H   0  0  0  0  0  0  0  0  0  0  0  0
   -1.2336  -10.1415    4.1541 H   0  0  0  0  0  0  0  0  0  0  0  0
    1.4295  -11.4551    3.1921 H   0  0  0  0  0  0  0  0  0  0  0  0
    4.2836   -8.2969    3.1018 H   0  0  0  0  0  0  0  0  0  0  0  0
    4.6607  -10.6975    3.9530 H   0  0  0  0  0  0  0  0  0  0  0  0
    3.1535  -10.2945    2.0051 H   0  0  0  0  0  0  0  0  0  0  0  0
    2.5305   -8.5365    0.9749 H   0  0  0  0  0  0  0  0  0  0  0  0
    0.5377   -9.0394    1.1003 H   0  0  0  0  0  0  0  0  0  0  0  0
    3.5947   -6.8808    1.6544 H   0  0  0  0  0  0  0  0  0  0  0  0
    1.4432   -3.7215    2.0371 H   0  0  0  0  0  0  0  0  0  0  0  0
    5.4461   -6.6688    3.4196 H   0  0  0  0  0  0  0  0  0  0  0  0
    5.1491   -5.1774    4.2434 H   0  0  0  0  0  0  0  0  0  0  0  0
    4.8916   -5.2672    2.5158 H   0  0  0  0  0  0  0  0  0  0  0  0
    4.3324   -7.0847    5.4171 H   0  0  0  0  0  0  0  0  0  0  0  0
   -0.6345   -5.7696    8.5794 H   0  0  0  0  0  0  0  0  0  0  0  0
   -1.5391   -5.6151    7.0464 H   0  0  0  0  0  0  0  0  0  0  0  0
   -1.2550   -4.2438    8.0777 H   0  0  0  0  0  0  0  0  0  0  0  0
    0.7130   -2.5299    3.8139 H   0  0  0  0  0  0  0  0  0  0  0  0
   -0.1951   -0.4413    3.3221 H   0  0  0  0  0  0  0  0  0  0  0  0
   -2.1779    0.3945    4.4880 H   0  0  0  0  0  0  0  0  0  0  0  0
   -0.8156    0.8956    5.4804 H   0  0  0  0  0  0  0  0  0  0  0  0
   -1.8315   -0.4645    5.9691 H   0  0  0  0  0  0  0  0  0  0  0  0
  1  2  2  0
  1 40  1  0
  1 41  1  0
  2 32  1  0
  2  3  1  0
  3  4  1  0
  3  5  1  0
  3 42  1  6
  4 43  1  0
  5 31  1  0
  5  6  1  1
  5  7  1  0
  6 44  1  0
  6 45  1  0
  6 46  1  0
  7  8  1  0
  7 32  1  0
  7 47  1  1
  8  9  1  0
  8 10  1  0
  8 48  1  1
  9 49  1  0
 10 17  1  0
 10 11  1  0
 10 50  1  1
 11 12  1  0
 11 13  1  0
 11 51  1  1
 12 52  1  0
 13 20  1  0
 13 14  1  0
 13 53  1  6
 14 15  1  0
 15 16  2  0
 17 15  1  1
 17 31  1  0
 17 18  1  0
 18 19  1  0
 18 20  1  0
 18 54  1  6
 19 55  1  0
 20 21  1  0
 20 56  1  6
 21 22  1  0
 21 57  1  6
 21 23  1  0
 22 58  1  0
 23 59  1  6
 23 29  1  0
 23 24  1  0
 24 26  1  0
 24 25  2  0
 26 27  2  0
 26 60  1  0
 27 29  1  0
 27 28  1  0
 29 30  1  6
 29 31  1  0
 30 61  1  0
 30 62  1  0
 30 63  1  0
 31 64  1  1
 32 33  1  0
 32 34  1  6
 33 65  1  0
 33 66  1  0
 33 67  1  0
 34 35  1  0
 35 36  2  0
 35 37  1  0
 37 38  2  3
 37 68  1  0
 38 39  1  0
 38 69  1  0
 39 70  1  0
 39 71  1  0
 39 72  1  0
M  CHG  1  28  -1
M  END
>  <i_m_ct_stereo_status>  (218) 
1

>  <s_m_source_file>  (218) 
/var/tmp/pbs.5076255.sched01/tmpavn81tjv/78c0r2i372.sdf

>  <i_m_source_file_index>  (218) 
7

>  <i_lp_mmshare_version>  (218) 
48012

>  <i_f3d_flags>  (218) 
0

>  <s_epik_input>  (218) 
W0NIM11cW0NIXT1bQ0hdXEMoPU8pT1tDQF0xKFtDSDNdKUMoPVtDSDJdKVtDQEBIXShbT0hdKVtDQEBdKFtDSDNdKShbQ0BASF0xW0NAQEhdKFtPSF0pW0NAQEhdMltDQEBdMzQ1KVtDQEBIXTVbQ0BAXTYoW0NIM10pW0NASF0oQyg9TylbQ0gyXUM2PU8pW0NASF0oW09IXSlbQ0BASF0oW0NAQEhdNFtPSF0pW0NASF0oW0NAQEhdMltPSF0pT0MzPU8=

>  <s_epik_cmdline>  (218) 
J2VwaWtfcHl0aG9uJywgJy1waHQnLCAnMi4wJywgJy1waCcsICc3LjAnLCAnLXRuJywgJzgnLCAnLW1hJywgJzIwMCcsICctaW1hZScsICc8aW5maWxlLm1hZT4nLCAnLW9tYWUnLCAnPG91dGZpbGUubWFlPic=

>  <r_lp_tautomer_probability>  (218) 
1

>  <r_epik_Ionization_Penalty>  (218) 
2.06752

>  <r_epik_Ionization_Penalty_Charging>  (218) 
0.00705976

>  <r_epik_Ionization_Penalty_Neutral>  (218) 
2.06046

>  <r_epik_State_Penalty>  (218) 
0.529051

>  <r_epik_Charging_Adjusted_Penalty>  (218) 
0.53611

>  <i_epik_Tot_Q>  (218) 
-1

>  <i_epik_Tot_abs_Q>  (218) 
1

>  <s_epik_Chemistry_Notes>  (218) 
This compound has an ester and may undergo hydrolysis at high or low pH.

>  <s_lp_Force_Field>  (218) 
OPLS3e

>  <r_lp_Energy>  (218) 
203.625

>  <b_lp_Chiralities_Consistent>  (218) 
1

>  <s_lp_Variant>  (218) 
66:0-2

>  <s_i_glide_gridfile>  (218) 
pfpi4k_grid

>  <i_i_glide_lignum>  (218) 
7

>  <i_i_glide_rotatable_bonds>  (218) 
8

>  <r_i_docking_score>  (218) 
-3.61448

>  <r_i_glide_ligand_efficiency>  (218) 
-0.0926789

>  <r_i_glide_ligand_efficiency_sa>  (218) 
-0.314294

>  <r_i_glide_ligand_efficiency_ln>  (218) 
-0.775046

>  <r_i_glide_gscore>  (218) 
-3.61448

>  <r_i_glide_lipo>  (218) 
-0.150968

>  <r_i_glide_hbond>  (218) 
-0.152

>  <r_i_glide_metal>  (218) 
-0

>  <r_i_glide_rewards>  (218) 
-0.5

>  <r_i_glide_evdw>  (218) 
-25.7877

>  <r_i_glide_ecoul>  (218) 
-10.9174

>  <r_i_glide_erotb>  (218) 
0.208697

>  <r_i_glide_esite>  (218) 
-0.0932072

>  <r_i_glide_emodel>  (218) 
-50.2139

>  <r_i_glide_energy>  (218) 
-36.7051

>  <r_i_glide_einternal>  (218) 
3.72025

>  <r_i_glide_intrahb_reward>  (218) 
-0.5

>  <i_i_glide_confnum>  (218) 
5

>  <i_i_glide_posenum>  (218) 
1

>  <r_i_glide_eff_state_penalty>  (218) 
0

>  <ligand_id>  (218) 
66

>  <original_smiles>  (218) 
C=C1C(O)C2(C)C(C(O)C3C(O)C4OC(=O)C35C(O)C4C(O)C3C(=O)CC(=O)C3(C)C25)C1(C)OC(=O)C=CC

>  <smiles>  (218) 
[H]OC1([H])C(=C([H])[H])C(OC(=O)C([H])=C([H])C([H])([H])[H])(C([H])([H])[H])C2([H])C([H])(O[H])C3([H])C([H])(O[H])C4([H])OC(=O)C35C([H])(O[H])C4([H])C([H])(O[H])C3([H])C(=O)C([H])=C([O-])C3(C([H])([H])[H])C5([H])C12C([H])([H])[H]

$$$$
66:1:1
     RDKit          3D

 72 77  0  0  1  0  0  0  0  0999 V2000
    3.4677   -4.2931    8.7996 C   0  0  0  0  0  0  0  0  0  0  0  0
    3.2026   -4.8709    7.6147 C   0  0  0  0  0  0  0  0  0  0  0  0
    4.2395   -5.5610    6.7448 C   0  0  1  0  0  0  0  0  0  0  0  0
    5.5263   -5.6764    7.3375 O   0  0  0  0  0  0  0  0  0  0  0  0
    3.5424   -6.8671    6.2627 C   0  0  1  0  0  0  0  0  0  0  0  0
    3.9679   -7.8887    7.3760 C   0  0  0  0  0  0  0  0  0  0  0  0
    2.0175   -6.5737    6.4663 C   0  0  2  0  0  0  0  0  0  0  0  0
    1.0652   -7.2621    5.4418 C   0  0  1  0  0  0  0  0  0  0  0  0
    0.7106   -6.4552    4.3532 O   0  0  0  0  0  0  0  0  0  0  0  0
    1.6328   -8.6650    5.0391 C   0  0  1  0  0  0  0  0  0  0  0  0
    0.6964   -9.7992    4.5643 C   0  0  1  0  0  0  0  0  0  0  0  0
   -0.5791   -9.4481    4.0901 O   0  0  0  0  0  0  0  0  0  0  0  0
    1.5866  -10.6754    3.6666 C   0  0  2  0  0  0  0  0  0  0  0  0
    2.5305  -11.1803    4.6845 O   0  0  0  0  0  0  0  0  0  0  0  0
    3.3937  -10.2603    5.3008 C   0  0  0  0  0  0  0  0  0  0  0  0
    4.2406  -10.5264    6.1456 O   0  0  0  0  0  0  0  0  0  0  0  0
    3.1856   -8.8752    4.6082 C   0  0  1  0  0  0  0  0  0  0  0  0
    3.6581   -9.4535    3.1911 C   0  0  1  0  0  0  0  0  0  0  0  0
    4.6945  -10.4433    3.0484 O   0  0  0  0  0  0  0  0  0  0  0  0
    2.3874   -9.8643    2.5439 C   0  0  2  0  0  0  0  0  0  0  0  0
    1.9199   -8.4886    1.9300 C   0  0  1  0  0  0  0  0  0  0  0  0
    0.5257   -8.3132    1.8671 O   0  0  0  0  0  0  0  0  0  0  0  0
    2.7675   -7.1244    2.1109 C   0  0  1  0  0  0  0  0  0  0  0  0
    2.0127   -5.9312    1.5495 C   0  0  0  0  0  0  0  0  0  0  0  0
    1.3179   -5.9461    0.5329 O   0  0  0  0  0  0  0  0  0  0  0  0
    2.2901   -4.7948    2.3581 C   0  0  0  0  0  0  0  0  0  0  0  0
    3.2111   -5.0494    3.3345 C   0  0  0  0  0  0  0  0  0  0  0  0
    3.9255   -4.2110    3.9193 O   0  0  0  0  0  0  0  0  0  0  0  0
    3.6918   -6.5526    3.3656 C   0  0  2  0  0  0  0  0  0  0  0  0
    5.1629   -6.4255    2.8441 C   0  0  0  0  0  0  0  0  0  0  0  0
    3.8545   -7.4482    4.7907 C   0  0  1  0  0  0  0  0  0  0  0  0
    1.8210   -5.1130    7.0001 C   0  0  1  0  0  0  0  0  0  0  0  0
    0.7158   -5.0413    8.0951 C   0  0  0  0  0  0  0  0  0  0  0  0
    1.6804   -4.1532    5.9264 O   0  0  0  0  0  0  0  0  0  0  0  0
    0.5814   -3.3883    5.6309 C   0  0  0  0  0  0  0  0  0  0  0  0
   -0.5385   -3.5171    6.1380 O   0  0  0  0  0  0  0  0  0  0  0  0
    0.9136   -2.3592    4.6239 C   0  0  0  0  0  0  0  0  0  0  0  0
    0.1294   -1.3136    4.2729 C   0  0  0  0  0  0  0  0  0  0  0  0
   -1.2334   -0.8931    4.8139 C   0  0  0  0  0  0  0  0  0  0  0  0
    2.6858   -3.8777    9.4234 H   0  0  0  0  0  0  0  0  0  0  0  0
    4.4799   -4.2417    9.1836 H   0  0  0  0  0  0  0  0  0  0  0  0
    4.4429   -4.8622    5.9816 H   0  0  0  0  0  0  0  0  0  0  0  0
    5.5095   -6.3533    7.9914 H   0  0  0  0  0  0  0  0  0  0  0  0
    3.2793   -8.7221    7.4981 H   0  0  0  0  0  0  0  0  0  0  0  0
    3.9839   -7.4393    8.3693 H   0  0  0  0  0  0  0  0  0  0  0  0
    4.9645   -8.2950    7.1941 H   0  0  0  0  0  0  0  0  0  0  0  0
    1.7592   -7.1324    7.3671 H   0  0  0  0  0  0  0  0  0  0  0  0
    0.1144   -7.4236    5.9505 H   0  0  0  0  0  0  0  0  0  0  0  0
    1.4656   -6.3514    3.7918 H   0  0  0  0  0  0  0  0  0  0  0  0
    1.6455   -8.9804    6.0850 H   0  0  0  0  0  0  0  0  0  0  0  0
    0.4311  -10.4242    5.4288 H   0  0  0  0  0  0  0  0  0  0  0  0
   -1.2186  -10.0705    4.4529 H   0  0  0  0  0  0  0  0  0  0  0  0
    1.0087  -11.4969    3.2282 H   0  0  0  0  0  0  0  0  0  0  0  0
    4.2449   -8.8042    2.5755 H   0  0  0  0  0  0  0  0  0  0  0  0
    4.6111  -10.8642    2.2028 H   0  0  0  0  0  0  0  0  0  0  0  0
    2.6140  -10.5509    1.7323 H   0  0  0  0  0  0  0  0  0  0  0  0
    2.1035   -8.6871    0.8783 H   0  0  0  0  0  0  0  0  0  0  0  0
    0.1994   -8.9232    1.2118 H   0  0  0  0  0  0  0  0  0  0  0  0
    3.5082   -7.2495    1.3207 H   0  0  0  0  0  0  0  0  0  0  0  0
    1.9596   -3.8111    2.0795 H   0  0  0  0  0  0  0  0  0  0  0  0
    5.6826   -7.3654    2.6903 H   0  0  0  0  0  0  0  0  0  0  0  0
    5.7797   -5.8740    3.5519 H   0  0  0  0  0  0  0  0  0  0  0  0
    5.1991   -5.8772    1.9053 H   0  0  0  0  0  0  0  0  0  0  0  0
    4.9183   -7.6754    4.8648 H   0  0  0  0  0  0  0  0  0  0  0  0
    0.9442   -5.6313    8.9810 H   0  0  0  0  0  0  0  0  0  0  0  0
   -0.2268   -5.4161    7.7050 H   0  0  0  0  0  0  0  0  0  0  0  0
    0.5561   -4.0190    8.4377 H   0  0  0  0  0  0  0  0  0  0  0  0
    1.8742   -2.4565    4.1299 H   0  0  0  0  0  0  0  0  0  0  0  0
    0.5178   -0.6560    3.5091 H   0  0  0  0  0  0  0  0  0  0  0  0
   -1.8842   -0.6292    3.9823 H   0  0  0  0  0  0  0  0  0  0  0  0
   -1.1252   -0.0096    5.4431 H   0  0  0  0  0  0  0  0  0  0  0  0
   -1.7635   -1.6488    5.3859 H   0  0  0  0  0  0  0  0  0  0  0  0
  1  2  2  0
  1 40  1  0
  1 41  1  0
  2 32  1  0
  2  3  1  0
  3  4  1  0
  3  5  1  0
  3 42  1  6
  4 43  1  0
  5 31  1  0
  5  6  1  1
  5  7  1  0
  6 44  1  0
  6 45  1  0
  6 46  1  0
  7  8  1  0
  7 32  1  0
  7 47  1  1
  8  9  1  0
  8 10  1  0
  8 48  1  1
  9 49  1  0
 10 17  1  0
 10 11  1  0
 10 50  1  1
 11 12  1  0
 11 13  1  0
 11 51  1  1
 12 52  1  0
 13 20  1  0
 13 14  1  0
 13 53  1  6
 14 15  1  0
 15 16  2  0
 17 15  1  1
 17 31  1  0
 17 18  1  0
 18 19  1  0
 18 20  1  0
 18 54  1  6
 19 55  1  0
 20 21  1  0
 20 56  1  6
 21 22  1  0
 21 57  1  6
 21 23  1  0
 22 58  1  0
 23 59  1  6
 23 29  1  0
 23 24  1  0
 24 26  1  0
 24 25  2  0
 26 27  2  0
 26 60  1  0
 27 29  1  0
 27 28  1  0
 29 30  1  6
 29 31  1  0
 30 61  1  0
 30 62  1  0
 30 63  1  0
 31 64  1  1
 32 33  1  0
 32 34  1  6
 33 65  1  0
 33 66  1  0
 33 67  1  0
 34 35  1  0
 35 36  2  0
 35 37  1  0
 37 38  2  3
 37 68  1  0
 38 39  1  0
 38 69  1  0
 39 70  1  0
 39 71  1  0
 39 72  1  0
M  CHG  1  28  -1
M  END
>  <i_m_ct_stereo_status>  (219) 
1

>  <s_m_source_file>  (219) 
/var/tmp/pbs.5076255.sched01/tmpavn81tjv/78c0r2i372.sdf

>  <i_m_source_file_index>  (219) 
7

>  <i_lp_mmshare_version>  (219) 
48012

>  <i_f3d_flags>  (219) 
0

>  <s_epik_input>  (219) 
W0NIM11cW0NIXT1bQ0hdXEMoPU8pT1tDQF0xKFtDSDNdKUMoPVtDSDJdKVtDQEBIXShbT0hdKVtDQEBdKFtDSDNdKShbQ0BASF0xW0NAQEhdKFtPSF0pW0NAQEhdMltDQEBdMzQ1KVtDQEBIXTVbQ0BAXTYoW0NIM10pW0NASF0oQyg9TylbQ0gyXUM2PU8pW0NASF0oW09IXSlbQ0BASF0oW0NAQEhdNFtPSF0pW0NASF0oW0NAQEhdMltPSF0pT0MzPU8=

>  <s_epik_cmdline>  (219) 
J2VwaWtfcHl0aG9uJywgJy1waHQnLCAnMi4wJywgJy1waCcsICc3LjAnLCAnLXRuJywgJzgnLCAnLW1hJywgJzIwMCcsICctaW1hZScsICc8aW5maWxlLm1hZT4nLCAnLW9tYWUnLCAnPG91dGZpbGUubWFlPic=

>  <r_lp_tautomer_probability>  (219) 
1

>  <r_epik_Ionization_Penalty>  (219) 
2.06752

>  <r_epik_Ionization_Penalty_Charging>  (219) 
0.00705976

>  <r_epik_Ionization_Penalty_Neutral>  (219) 
2.06046

>  <r_epik_State_Penalty>  (219) 
0.529051

>  <r_epik_Charging_Adjusted_Penalty>  (219) 
0.53611

>  <i_epik_Tot_Q>  (219) 
-1

>  <i_epik_Tot_abs_Q>  (219) 
1

>  <s_epik_Chemistry_Notes>  (219) 
This compound has an ester and may undergo hydrolysis at high or low pH.

>  <s_lp_Force_Field>  (219) 
OPLS3e

>  <r_lp_Energy>  (219) 
203.625

>  <b_lp_Chiralities_Consistent>  (219) 
1

>  <s_lp_Variant>  (219) 
66:0-2

>  <s_i_glide_gridfile>  (219) 
pfpi4k_grid

>  <i_i_glide_lignum>  (219) 
7

>  <i_i_glide_rotatable_bonds>  (219) 
8

>  <r_i_docking_score>  (219) 
-3.20845

>  <r_i_glide_ligand_efficiency>  (219) 
-0.0822679

>  <r_i_glide_ligand_efficiency_sa>  (219) 
-0.278988

>  <r_i_glide_ligand_efficiency_ln>  (219) 
-0.687982

>  <r_i_glide_gscore>  (219) 
-3.20845

>  <r_i_glide_lipo>  (219) 
-0.102655

>  <r_i_glide_hbond>  (219) 
-0.150007

>  <r_i_glide_metal>  (219) 
-0

>  <r_i_glide_rewards>  (219) 
0

>  <r_i_glide_evdw>  (219) 
-24.5339

>  <r_i_glide_ecoul>  (219) 
-12.4715

>  <r_i_glide_erotb>  (219) 
0.208697

>  <r_i_glide_esite>  (219) 
-0.067059

>  <r_i_glide_emodel>  (219) 
-43.2215

>  <r_i_glide_energy>  (219) 
-37.0054

>  <r_i_glide_einternal>  (219) 
6.10071

>  <r_i_glide_intrahb_reward>  (219) 
-0

>  <i_i_glide_confnum>  (219) 
5

>  <i_i_glide_posenum>  (219) 
24

>  <r_i_glide_eff_state_penalty>  (219) 
0

>  <ligand_id>  (219) 
66

>  <original_smiles>  (219) 
C=C1C(O)C2(C)C(C(O)C3C(O)C4OC(=O)C35C(O)C4C(O)C3C(=O)CC(=O)C3(C)C25)C1(C)OC(=O)C=CC

>  <smiles>  (219) 
[H]OC1([H])C(=C([H])[H])C(OC(=O)C([H])=C([H])C([H])([H])[H])(C([H])([H])[H])C2([H])C([H])(O[H])C3([H])C([H])(O[H])C4([H])OC(=O)C35C([H])(O[H])C4([H])C([H])(O[H])C3([H])C(=O)C([H])=C([O-])C3(C([H])([H])[H])C5([H])C12C([H])([H])[H]

$$$$
66:1:2
     RDKit          3D

 72 77  0  0  1  0  0  0  0  0999 V2000
    2.6681   -2.4563    7.7812 C   0  0  0  0  0  0  0  0  0  0  0  0
    2.4733   -3.3214    6.7802 C   0  0  0  0  0  0  0  0  0  0  0  0
    3.5563   -4.2706    6.2610 C   0  0  1  0  0  0  0  0  0  0  0  0
    4.7685   -4.2613    7.0144 O   0  0  0  0  0  0  0  0  0  0  0  0
    2.8312   -5.6396    6.0868 C   0  0  1  0  0  0  0  0  0  0  0  0
    3.0969   -6.3234    7.4812 C   0  0  0  0  0  0  0  0  0  0  0  0
    1.3115   -5.2541    6.0374 C   0  0  2  0  0  0  0  0  0  0  0  0
    0.4202   -6.1978    5.1679 C   0  0  1  0  0  0  0  0  0  0  0  0
    0.2068   -5.7476    3.8605 O   0  0  0  0  0  0  0  0  0  0  0  0
    0.9484   -7.6738    5.2280 C   0  0  1  0  0  0  0  0  0  0  0  0
    0.0096   -8.8768    4.9970 C   0  0  1  0  0  0  0  0  0  0  0  0
   -1.2264   -8.6552    4.3510 O   0  0  0  0  0  0  0  0  0  0  0  0
    0.9225   -9.9911    4.4639 C   0  0  2  0  0  0  0  0  0  0  0  0
    1.7472  -10.2071    5.6789 O   0  0  0  0  0  0  0  0  0  0  0  0
    2.5894   -9.1552    6.0923 C   0  0  0  0  0  0  0  0  0  0  0  0
    3.3359   -9.2005    7.0561 O   0  0  0  0  0  0  0  0  0  0  0  0
    2.5182   -8.0273    5.0291 C   0  0  1  0  0  0  0  0  0  0  0  0
    3.0940   -9.0017    3.9007 C   0  0  1  0  0  0  0  0  0  0  0  0
    4.1130   -9.9858    4.1489 O   0  0  0  0  0  0  0  0  0  0  0  0
    1.8800   -9.5654    3.2528 C   0  0  2  0  0  0  0  0  0  0  0  0
    1.5417   -8.4167    2.2251 C   0  0  1  0  0  0  0  0  0  0  0  0
    0.1519   -8.2414    2.0418 O   0  0  0  0  0  0  0  0  0  0  0  0
    2.4283   -7.0591    2.1075 C   0  0  1  0  0  0  0  0  0  0  0  0
    1.7799   -6.0182    1.2008 C   0  0  0  0  0  0  0  0  0  0  0  0
    1.0940   -6.2254    0.1973 O   0  0  0  0  0  0  0  0  0  0  0  0
    2.0782   -4.7344    1.6896 C   0  0  0  0  0  0  0  0  0  0  0  0
    2.8883   -4.7412    2.7806 C   0  0  0  0  0  0  0  0  0  0  0  0
    3.5963   -3.8011    3.1690 O   0  0  0  0  0  0  0  0  0  0  0  0
    3.2675   -6.1873    3.2522 C   0  0  2  0  0  0  0  0  0  0  0  0
    4.7817   -6.2501    2.8718 C   0  0  0  0  0  0  0  0  0  0  0  0
    3.2426   -6.6363    4.8776 C   0  0  1  0  0  0  0  0  0  0  0  0
    1.1175   -3.7012    6.1300 C   0  0  1  0  0  0  0  0  0  0  0  0
   -0.1046   -3.3607    7.0388 C   0  0  0  0  0  0  0  0  0  0  0  0
    0.9848   -3.1149    4.8111 O   0  0  0  0  0  0  0  0  0  0  0  0
    0.8378   -1.7728    4.5923 C   0  0  0  0  0  0  0  0  0  0  0  0
    0.6013   -0.9601    5.4998 O   0  0  0  0  0  0  0  0  0  0  0  0
    1.0646   -1.3959    3.1703 C   0  0  0  0  0  0  0  0  0  0  0  0
    0.6857   -0.2400    2.5665 C   0  0  0  0  0  0  0  0  0  0  0  0
   -0.0993    0.9387    3.1404 C   0  0  0  0  0  0  0  0  0  0  0  0
    1.8509   -1.8700    8.1770 H   0  0  0  0  0  0  0  0  0  0  0  0
    3.6391   -2.3339    8.2534 H   0  0  0  0  0  0  0  0  0  0  0  0
    3.8847   -3.8173    5.3708 H   0  0  0  0  0  0  0  0  0  0  0  0
    4.6490   -4.7353    7.8207 H   0  0  0  0  0  0  0  0  0  0  0  0
    2.3550   -7.0711    7.7545 H   0  0  0  0  0  0  0  0  0  0  0  0
    3.0410   -5.6127    8.3037 H   0  0  0  0  0  0  0  0  0  0  0  0
    4.0851   -6.7892    7.5237 H   0  0  0  0  0  0  0  0  0  0  0  0
    0.9626   -5.5405    7.0293 H   0  0  0  0  0  0  0  0  0  0  0  0
   -0.5780   -6.1875    5.6121 H   0  0  0  0  0  0  0  0  0  0  0  0
    1.0325   -5.7554    3.4026 H   0  0  0  0  0  0  0  0  0  0  0  0
    0.8441   -7.6704    6.3126 H   0  0  0  0  0  0  0  0  0  0  0  0
   -0.3477   -9.2272    5.9699 H   0  0  0  0  0  0  0  0  0  0  0  0
   -1.7475   -9.4655    4.4854 H   0  0  0  0  0  0  0  0  0  0  0  0
    0.3399  -10.8850    4.2156 H   0  0  0  0  0  0  0  0  0  0  0  0
    3.7634   -8.5629    3.1947 H   0  0  0  0  0  0  0  0  0  0  0  0
    3.7310  -10.6838    4.6608 H   0  0  0  0  0  0  0  0  0  0  0  0
    2.1484  -10.4584    2.6971 H   0  0  0  0  0  0  0  0  0  0  0  0
    1.7927   -8.9033    1.2748 H   0  0  0  0  0  0  0  0  0  0  0  0
   -0.1531   -8.9207    1.4502 H   0  0  0  0  0  0  0  0  0  0  0  0
    3.2359   -7.4276    1.4627 H   0  0  0  0  0  0  0  0  0  0  0  0
    1.8375   -3.8719    1.1076 H   0  0  0  0  0  0  0  0  0  0  0  0
    5.2633   -7.2089    3.0410 H   0  0  0  0  0  0  0  0  0  0  0  0
    5.3561   -5.5365    3.4612 H   0  0  0  0  0  0  0  0  0  0  0  0
    4.9267   -5.9834    1.8282 H   0  0  0  0  0  0  0  0  0  0  0  0
    4.2825   -6.8654    5.1207 H   0  0  0  0  0  0  0  0  0  0  0  0
    0.0129   -3.7986    8.0381 H   0  0  0  0  0  0  0  0  0  0  0  0
   -0.9878   -3.8021    6.5876 H   0  0  0  0  0  0  0  0  0  0  0  0
   -0.2983   -2.2966    7.1785 H   0  0  0  0  0  0  0  0  0  0  0  0
    1.6051   -2.1100    2.5525 H   0  0  0  0  0  0  0  0  0  0  0  0
    0.9678   -0.1035    1.5286 H   0  0  0  0  0  0  0  0  0  0  0  0
   -0.8629    1.2482    2.4220 H   0  0  0  0  0  0  0  0  0  0  0  0
    0.5628    1.7934    3.2939 H   0  0  0  0  0  0  0  0  0  0  0  0
   -0.6197    0.7412    4.0789 H   0  0  0  0  0  0  0  0  0  0  0  0
  1  2  2  0
  1 40  1  0
  1 41  1  0
  2 32  1  0
  2  3  1  0
  3  4  1  0
  3  5  1  0
  3 42  1  6
  4 43  1  0
  5 31  1  0
  5  6  1  1
  5  7  1  0
  6 44  1  0
  6 45  1  0
  6 46  1  0
  7  8  1  0
  7 32  1  0
  7 47  1  1
  8  9  1  0
  8 10  1  0
  8 48  1  1
  9 49  1  0
 10 17  1  0
 10 11  1  0
 10 50  1  1
 11 12  1  0
 11 13  1  0
 11 51  1  1
 12 52  1  0
 13 20  1  0
 13 14  1  0
 13 53  1  6
 14 15  1  0
 15 16  2  0
 17 15  1  1
 17 31  1  0
 17 18  1  0
 18 19  1  0
 18 20  1  0
 18 54  1  6
 19 55  1  0
 20 21  1  0
 20 56  1  6
 21 22  1  0
 21 57  1  6
 21 23  1  0
 22 58  1  0
 23 59  1  6
 23 29  1  0
 23 24  1  0
 24 26  1  0
 24 25  2  0
 26 27  2  0
 26 60  1  0
 27 29  1  0
 27 28  1  0
 29 30  1  6
 29 31  1  0
 30 61  1  0
 30 62  1  0
 30 63  1  0
 31 64  1  1
 32 33  1  0
 32 34  1  6
 33 65  1  0
 33 66  1  0
 33 67  1  0
 34 35  1  0
 35 36  2  0
 35 37  1  0
 37 38  2  3
 37 68  1  0
 38 39  1  0
 38 69  1  0
 39 70  1  0
 39 71  1  0
 39 72  1  0
M  CHG  1  28  -1
M  END
>  <i_m_ct_stereo_status>  (220) 
1

>  <s_m_source_file>  (220) 
/var/tmp/pbs.5076255.sched01/tmpavn81tjv/78c0r2i372.sdf

>  <i_m_source_file_index>  (220) 
7

>  <i_lp_mmshare_version>  (220) 
48012

>  <i_f3d_flags>  (220) 
0

>  <s_epik_input>  (220) 
W0NIM11cW0NIXT1bQ0hdXEMoPU8pT1tDQF0xKFtDSDNdKUMoPVtDSDJdKVtDQEBIXShbT0hdKVtDQEBdKFtDSDNdKShbQ0BASF0xW0NAQEhdKFtPSF0pW0NAQEhdMltDQEBdMzQ1KVtDQEBIXTVbQ0BAXTYoW0NIM10pW0NASF0oQyg9TylbQ0gyXUM2PU8pW0NASF0oW09IXSlbQ0BASF0oW0NAQEhdNFtPSF0pW0NASF0oW0NAQEhdMltPSF0pT0MzPU8=

>  <s_epik_cmdline>  (220) 
J2VwaWtfcHl0aG9uJywgJy1waHQnLCAnMi4wJywgJy1waCcsICc3LjAnLCAnLXRuJywgJzgnLCAnLW1hJywgJzIwMCcsICctaW1hZScsICc8aW5maWxlLm1hZT4nLCAnLW9tYWUnLCAnPG91dGZpbGUubWFlPic=

>  <r_lp_tautomer_probability>  (220) 
1

>  <r_epik_Ionization_Penalty>  (220) 
2.06752

>  <r_epik_Ionization_Penalty_Charging>  (220) 
0.00705976

>  <r_epik_Ionization_Penalty_Neutral>  (220) 
2.06046

>  <r_epik_State_Penalty>  (220) 
0.529051

>  <r_epik_Charging_Adjusted_Penalty>  (220) 
0.53611

>  <i_epik_Tot_Q>  (220) 
-1

>  <i_epik_Tot_abs_Q>  (220) 
1

>  <s_epik_Chemistry_Notes>  (220) 
This compound has an ester and may undergo hydrolysis at high or low pH.

>  <s_lp_Force_Field>  (220) 
OPLS3e

>  <r_lp_Energy>  (220) 
203.625

>  <b_lp_Chiralities_Consistent>  (220) 
1

>  <s_lp_Variant>  (220) 
66:0-2

>  <s_i_glide_gridfile>  (220) 
pfpi4k_grid

>  <i_i_glide_lignum>  (220) 
7

>  <i_i_glide_rotatable_bonds>  (220) 
8

>  <r_i_docking_score>  (220) 
-2.94712

>  <r_i_glide_ligand_efficiency>  (220) 
-0.0755672

>  <r_i_glide_ligand_efficiency_sa>  (220) 
-0.256264

>  <r_i_glide_ligand_efficiency_ln>  (220) 
-0.631946

>  <r_i_glide_gscore>  (220) 
-2.94712

>  <r_i_glide_lipo>  (220) 
0

>  <r_i_glide_hbond>  (220) 
-0.31693

>  <r_i_glide_metal>  (220) 
-0

>  <r_i_glide_rewards>  (220) 
-0.00135217

>  <r_i_glide_evdw>  (220) 
-27.2241

>  <r_i_glide_ecoul>  (220) 
-9.26029

>  <r_i_glide_erotb>  (220) 
0.208697

>  <r_i_glide_esite>  (220) 
-0.0872861

>  <r_i_glide_emodel>  (220) 
-43.1227

>  <r_i_glide_energy>  (220) 
-36.4844

>  <r_i_glide_einternal>  (220) 
2.908

>  <r_i_glide_intrahb_reward>  (220) 
-0

>  <i_i_glide_confnum>  (220) 
5

>  <i_i_glide_posenum>  (220) 
39

>  <r_i_glide_eff_state_penalty>  (220) 
0

>  <ligand_id>  (220) 
66

>  <original_smiles>  (220) 
C=C1C(O)C2(C)C(C(O)C3C(O)C4OC(=O)C35C(O)C4C(O)C3C(=O)CC(=O)C3(C)C25)C1(C)OC(=O)C=CC

>  <smiles>  (220) 
[H]OC1([H])C(=C([H])[H])C(OC(=O)C([H])=C([H])C([H])([H])[H])(C([H])([H])[H])C2([H])C([H])(O[H])C3([H])C([H])(O[H])C4([H])OC(=O)C35C([H])(O[H])C4([H])C([H])(O[H])C3([H])C(=O)C([H])=C([O-])C3(C([H])([H])[H])C5([H])C12C([H])([H])[H]

$$$$
66:2:0
     RDKit          3D

 72 77  0  0  1  0  0  0  0  0999 V2000
    2.0474   -3.8107    8.7221 C   0  0  0  0  0  0  0  0  0  0  0  0
    1.9628   -4.4750    7.5468 C   0  0  0  0  0  0  0  0  0  0  0  0
    3.1463   -5.1519    6.8719 C   0  0  1  0  0  0  0  0  0  0  0  0
    4.3377   -5.1649    7.6414 O   0  0  0  0  0  0  0  0  0  0  0  0
    2.6045   -6.5224    6.3703 C   0  0  1  0  0  0  0  0  0  0  0  0
    2.9395   -7.4774    7.5701 C   0  0  0  0  0  0  0  0  0  0  0  0
    1.0496   -6.3196    6.3402 C   0  0  2  0  0  0  0  0  0  0  0  0
    0.3007   -7.1158    5.2133 C   0  0  1  0  0  0  0  0  0  0  0  0
    0.0131   -6.4289    4.0226 O   0  0  0  0  0  0  0  0  0  0  0  0
    1.0231   -8.4770    4.9403 C   0  0  1  0  0  0  0  0  0  0  0  0
    0.2632   -9.6717    4.3391 C   0  0  1  0  0  0  0  0  0  0  0  0
   -0.9564   -9.4339    3.6749 O   0  0  0  0  0  0  0  0  0  0  0  0
    1.3239  -10.4860    3.5984 C   0  0  2  0  0  0  0  0  0  0  0  0
    2.1255  -10.9233    4.7552 O   0  0  0  0  0  0  0  0  0  0  0  0
    2.8213   -9.9419    5.5004 C   0  0  0  0  0  0  0  0  0  0  0  0
    3.5473  -10.1185    6.4651 O   0  0  0  0  0  0  0  0  0  0  0  0
    2.6252   -8.5846    4.7549 C   0  0  1  0  0  0  0  0  0  0  0  0
    3.3497   -9.1271    3.4439 C   0  0  1  0  0  0  0  0  0  0  0  0
    4.4451  -10.0609    3.4820 O   0  0  0  0  0  0  0  0  0  0  0  0
    2.2305   -9.6246    2.6056 C   0  0  2  0  0  0  0  0  0  0  0  0
    1.7637   -8.2849    1.9114 C   0  0  1  0  0  0  0  0  0  0  0  0
    0.3742   -8.1682    1.7343 O   0  0  0  0  0  0  0  0  0  0  0  0
    2.5215   -6.8753    2.1306 C   0  0  1  0  0  0  0  0  0  0  0  0
    1.8108   -5.7090    1.4008 C   0  0  0  0  0  0  0  0  0  0  0  0
    1.4004   -5.9618    0.2388 O   0  0  0  0  0  0  0  0  0  0  0  0
    1.8191   -4.6310    2.1973 C   0  0  0  0  0  0  0  0  0  0  0  0
    2.5166   -4.8308    3.4313 C   0  0  0  0  0  0  0  0  0  0  0  0
    2.8139   -3.8761    4.1277 O   0  0  0  0  0  0  0  0  0  0  0  0
    3.1372   -6.2557    3.5502 C   0  0  2  0  0  0  0  0  0  0  0  0
    4.6405   -5.9095    3.3092 C   0  0  0  0  0  0  0  0  0  0  0  0
    3.1691   -7.1224    4.9904 C   0  0  1  0  0  0  0  0  0  0  0  0
    0.6613   -4.8738    6.8408 C   0  0  1  0  0  0  0  0  0  0  0  0
   -0.5806   -4.9454    7.7802 C   0  0  0  0  0  0  0  0  0  0  0  0
    0.3792   -3.9867    5.7351 O   0  0  0  0  0  0  0  0  0  0  0  0
    0.1579   -2.6291    5.8922 C   0  0  0  0  0  0  0  0  0  0  0  0
   -0.0711   -2.0552    6.9554 O   0  0  0  0  0  0  0  0  0  0  0  0
    0.2455   -1.9122    4.5989 C   0  0  0  0  0  0  0  0  0  0  0  0
   -0.0117   -0.5978    4.5071 C   0  0  0  0  0  0  0  0  0  0  0  0
    0.0689    0.1889    3.2175 C   0  0  0  0  0  0  0  0  0  0  0  0
    1.1627   -3.4304    9.2076 H   0  0  0  0  0  0  0  0  0  0  0  0
    2.9920   -3.6427    9.2163 H   0  0  0  0  0  0  0  0  0  0  0  0
    3.4496   -4.5118    6.0887 H   0  0  0  0  0  0  0  0  0  0  0  0
    4.2537   -5.7899    8.3337 H   0  0  0  0  0  0  0  0  0  0  0  0
    2.3043   -8.3606    7.6160 H   0  0  0  0  0  0  0  0  0  0  0  0
    2.7830   -7.0023    8.5382 H   0  0  0  0  0  0  0  0  0  0  0  0
    3.9782   -7.8144    7.5427 H   0  0  0  0  0  0  0  0  0  0  0  0
    0.7134   -6.8986    7.2011 H   0  0  0  0  0  0  0  0  0  0  0  0
   -0.6947   -7.3475    5.5861 H   0  0  0  0  0  0  0  0  0  0  0  0
   -0.0797   -7.0845    3.3347 H   0  0  0  0  0  0  0  0  0  0  0  0
    0.8939   -8.7855    5.9796 H   0  0  0  0  0  0  0  0  0  0  0  0
   -0.0727  -10.3055    5.1640 H   0  0  0  0  0  0  0  0  0  0  0  0
   -1.5755  -10.0436    4.0776 H   0  0  0  0  0  0  0  0  0  0  0  0
    0.8865  -11.3500    3.0978 H   0  0  0  0  0  0  0  0  0  0  0  0
    4.0017   -8.4332    2.9513 H   0  0  0  0  0  0  0  0  0  0  0  0
    4.5805  -10.4221    2.6240 H   0  0  0  0  0  0  0  0  0  0  0  0
    2.6278  -10.2914    1.8428 H   0  0  0  0  0  0  0  0  0  0  0  0
    2.0498   -8.4964    0.8734 H   0  0  0  0  0  0  0  0  0  0  0  0
    0.1300   -8.8295    1.0924 H   0  0  0  0  0  0  0  0  0  0  0  0
    3.4214   -7.0161    1.5279 H   0  0  0  0  0  0  0  0  0  0  0  0
    1.4362   -3.6536    1.9445 H   0  0  0  0  0  0  0  0  0  0  0  0
    5.2733   -6.7745    3.1358 H   0  0  0  0  0  0  0  0  0  0  0  0
    5.0681   -5.3806    4.1627 H   0  0  0  0  0  0  0  0  0  0  0  0
    4.7776   -5.2543    2.4514 H   0  0  0  0  0  0  0  0  0  0  0  0
    4.2261   -7.2830    5.2171 H   0  0  0  0  0  0  0  0  0  0  0  0
   -0.3616   -5.5087    8.6889 H   0  0  0  0  0  0  0  0  0  0  0  0
   -1.4146   -5.4076    7.2590 H   0  0  0  0  0  0  0  0  0  0  0  0
   -0.9447   -3.9862    8.1424 H   0  0  0  0  0  0  0  0  0  0  0  0
    0.5375   -2.4753    3.7244 H   0  0  0  0  0  0  0  0  0  0  0  0
   -0.2959   -0.0256    5.3806 H   0  0  0  0  0  0  0  0  0  0  0  0
    0.7742    1.0133    3.3097 H   0  0  0  0  0  0  0  0  0  0  0  0
   -0.9094    0.5990    2.9628 H   0  0  0  0  0  0  0  0  0  0  0  0
    0.3919   -0.4503    2.3968 H   0  0  0  0  0  0  0  0  0  0  0  0
  1  2  2  0
  1 40  1  0
  1 41  1  0
  2 32  1  0
  2  3  1  0
  3  4  1  0
  3  5  1  0
  3 42  1  6
  4 43  1  0
  5 31  1  0
  5  6  1  1
  5  7  1  0
  6 44  1  0
  6 45  1  0
  6 46  1  0
  7  8  1  0
  7 32  1  0
  7 47  1  1
  8  9  1  0
  8 10  1  0
  8 48  1  1
  9 49  1  0
 10 17  1  0
 10 11  1  0
 10 50  1  1
 11 12  1  0
 11 13  1  0
 11 51  1  1
 12 52  1  0
 13 20  1  0
 13 14  1  0
 13 53  1  6
 14 15  1  0
 15 16  2  0
 17 15  1  1
 17 31  1  0
 17 18  1  0
 18 19  1  0
 18 20  1  0
 18 54  1  6
 19 55  1  0
 20 21  1  0
 20 56  1  6
 21 22  1  0
 21 57  1  6
 21 23  1  0
 22 58  1  0
 23 59  1  6
 23 29  1  0
 23 24  1  0
 24 26  2  0
 24 25  1  0
 26 27  1  0
 26 60  1  0
 27 29  1  0
 27 28  2  0
 29 30  1  6
 29 31  1  0
 30 61  1  0
 30 62  1  0
 30 63  1  0
 31 64  1  1
 32 33  1  0
 32 34  1  6
 33 65  1  0
 33 66  1  0
 33 67  1  0
 34 35  1  0
 35 36  2  0
 35 37  1  0
 37 38  2  3
 37 68  1  0
 38 39  1  0
 38 69  1  0
 39 70  1  0
 39 71  1  0
 39 72  1  0
M  CHG  1  25  -1
M  END
>  <i_m_ct_stereo_status>  (221) 
1

>  <s_m_source_file>  (221) 
/var/tmp/pbs.5076255.sched01/tmpavn81tjv/78c0r2i372.sdf

>  <i_m_source_file_index>  (221) 
8

>  <i_lp_mmshare_version>  (221) 
48012

>  <i_f3d_flags>  (221) 
0

>  <s_epik_input>  (221) 
W0NIM11cW0NIXT1bQ0hdXEMoPU8pT1tDQF0xKFtDSDNdKUMoPVtDSDJdKVtDQEBIXShbT0hdKVtDQEBdKFtDSDNdKShbQ0BASF0xW0NAQEhdKFtPSF0pW0NAQEhdMltDQEBdMzQ1KVtDQEBIXTVbQ0BAXTYoW0NIM10pW0NASF0oQyg9TylbQ0gyXUM2PU8pW0NASF0oW09IXSlbQ0BASF0oW0NAQEhdNFtPSF0pW0NASF0oW0NAQEhdMltPSF0pT0MzPU8=

>  <s_epik_cmdline>  (221) 
J2VwaWtfcHl0aG9uJywgJy1waHQnLCAnMi4wJywgJy1waCcsICc3LjAnLCAnLXRuJywgJzgnLCAnLW1hJywgJzIwMCcsICctaW1hZScsICc8aW5maWxlLm1hZT4nLCAnLW9tYWUnLCAnPG91dGZpbGUubWFlPic=

>  <r_lp_tautomer_probability>  (221) 
1

>  <r_epik_Ionization_Penalty>  (221) 
2.06701

>  <r_epik_Ionization_Penalty_Charging>  (221) 
0.00654894

>  <r_epik_Ionization_Penalty_Neutral>  (221) 
2.06046

>  <r_epik_State_Penalty>  (221) 
0.683795

>  <r_epik_Charging_Adjusted_Penalty>  (221) 
0.690344

>  <i_epik_Tot_Q>  (221) 
-1

>  <i_epik_Tot_abs_Q>  (221) 
1

>  <s_epik_Chemistry_Notes>  (221) 
This compound has an ester and may undergo hydrolysis at high or low pH.

>  <s_lp_Force_Field>  (221) 
OPLS3e

>  <r_lp_Energy>  (221) 
195.944

>  <b_lp_Chiralities_Consistent>  (221) 
1

>  <s_lp_Variant>  (221) 
66:0-3

>  <s_i_glide_gridfile>  (221) 
pfpi4k_grid

>  <i_i_glide_lignum>  (221) 
8

>  <i_i_glide_rotatable_bonds>  (221) 
8

>  <r_i_docking_score>  (221) 
-3.28874

>  <r_i_glide_ligand_efficiency>  (221) 
-0.0843266

>  <r_i_glide_ligand_efficiency_sa>  (221) 
-0.285969

>  <r_i_glide_ligand_efficiency_ln>  (221) 
-0.705199

>  <r_i_glide_gscore>  (221) 
-3.28874

>  <r_i_glide_lipo>  (221) 
-0.167113

>  <r_i_glide_hbond>  (221) 
-0.214999

>  <r_i_glide_metal>  (221) 
-0

>  <r_i_glide_rewards>  (221) 
-0.5

>  <r_i_glide_evdw>  (221) 
-24.1894

>  <r_i_glide_ecoul>  (221) 
-9.03261

>  <r_i_glide_erotb>  (221) 
0.208697

>  <r_i_glide_esite>  (221) 
-0.0509595

>  <r_i_glide_emodel>  (221) 
-46.5815

>  <r_i_glide_energy>  (221) 
-33.222

>  <r_i_glide_einternal>  (221) 
3.58081

>  <r_i_glide_intrahb_reward>  (221) 
-0.5

>  <i_i_glide_confnum>  (221) 
1

>  <i_i_glide_posenum>  (221) 
12

>  <r_i_glide_eff_state_penalty>  (221) 
0

>  <ligand_id>  (221) 
66

>  <original_smiles>  (221) 
C=C1C(O)C2(C)C(C(O)C3C(O)C4OC(=O)C35C(O)C4C(O)C3C(=O)CC(=O)C3(C)C25)C1(C)OC(=O)C=CC

>  <smiles>  (221) 
[H]OC1([H])C(=C([H])[H])C(OC(=O)C([H])=C([H])C([H])([H])[H])(C([H])([H])[H])C2([H])C([H])(O[H])C3([H])C([H])(O[H])C4([H])OC(=O)C35C([H])(O[H])C4([H])C([H])(O[H])C3([H])C([O-])=C([H])C(=O)C3(C([H])([H])[H])C5([H])C12C([H])([H])[H]

$$$$
66:2:1
     RDKit          3D

 72 77  0  0  1  0  0  0  0  0999 V2000
    6.1863   -9.6086    3.1577 C   0  0  0  0  0  0  0  0  0  0  0  0
    5.6086   -8.4209    2.9553 C   0  0  0  0  0  0  0  0  0  0  0  0
    6.2169   -7.0814    3.3547 C   0  0  1  0  0  0  0  0  0  0  0  0
    7.5413   -7.1698    3.8578 O   0  0  0  0  0  0  0  0  0  0  0  0
    5.9715   -6.1400    2.1435 C   0  0  1  0  0  0  0  0  0  0  0  0
    7.2883   -6.3088    1.3058 C   0  0  0  0  0  0  0  0  0  0  0  0
    4.8122   -6.8313    1.3536 C   0  0  2  0  0  0  0  0  0  0  0  0
    3.8322   -5.8472    0.6170 C   0  0  1  0  0  0  0  0  0  0  0  0
    2.6660   -5.5207    1.3231 O   0  0  0  0  0  0  0  0  0  0  0  0
    4.6041   -4.5729    0.1155 C   0  0  1  0  0  0  0  0  0  0  0  0
    4.1030   -3.7238   -1.0785 C   0  0  1  0  0  0  0  0  0  0  0  0
    2.7535   -3.8441   -1.4981 O   0  0  0  0  0  0  0  0  0  0  0  0
    4.6334   -2.3134   -0.7954 C   0  0  2  0  0  0  0  0  0  0  0  0
    6.0756   -2.5812   -0.9634 O   0  0  0  0  0  0  0  0  0  0  0  0
    6.6996   -3.4367   -0.0207 C   0  0  0  0  0  0  0  0  0  0  0  0
    7.8832   -3.7468    0.0083 O   0  0  0  0  0  0  0  0  0  0  0  0
    5.6372   -3.7719    1.0663 C   0  0  1  0  0  0  0  0  0  0  0  0
    5.4977   -2.2379    1.4921 C   0  0  1  0  0  0  0  0  0  0  0  0
    6.5896   -1.3132    1.4442 O   0  0  0  0  0  0  0  0  0  0  0  0
    4.3692   -1.7385    0.6789 C   0  0  2  0  0  0  0  0  0  0  0  0
    3.1767   -2.1436    1.6027 C   0  0  1  0  0  0  0  0  0  0  0  0
    2.1745   -2.6570    0.8174 O   0  0  0  0  0  0  0  0  0  0  0  0
    3.3352   -2.9102    3.0302 C   0  0  1  0  0  0  0  0  0  0  0  0
    1.9936   -3.3075    3.6541 C   0  0  0  0  0  0  0  0  0  0  0  0
    1.1031   -2.4185    3.6001 O   0  0  0  0  0  0  0  0  0  0  0  0
    2.1053   -4.5367    4.2332 C   0  0  0  0  0  0  0  0  0  0  0  0
    3.4636   -5.0427    4.1632 C   0  0  0  0  0  0  0  0  0  0  0  0
    3.7948   -5.9726    4.8734 O   0  0  0  0  0  0  0  0  0  0  0  0
    4.4457   -4.0653    3.4541 C   0  0  2  0  0  0  0  0  0  0  0  0
    5.2190   -3.5294    4.7009 C   0  0  0  0  0  0  0  0  0  0  0  0
    5.6688   -4.5892    2.4170 C   0  0  1  0  0  0  0  0  0  0  0  0
    4.3775   -8.1671    2.0615 C   0  0  1  0  0  0  0  0  0  0  0  0
    4.1620   -9.2869    1.0089 C   0  0  0  0  0  0  0  0  0  0  0  0
    3.1857   -7.9969    2.8553 O   0  0  0  0  0  0  0  0  0  0  0  0
    2.7082   -8.9777    3.7163 C   0  0  0  0  0  0  0  0  0  0  0  0
    3.0384  -10.1672    3.6931 O   0  0  0  0  0  0  0  0  0  0  0  0
    1.7716   -8.4360    4.7192 C   0  0  0  0  0  0  0  0  0  0  0  0
    1.1856   -9.2185    5.6421 C   0  0  0  0  0  0  0  0  0  0  0  0
    0.2387   -8.7015    6.6992 C   0  0  0  0  0  0  0  0  0  0  0  0
    5.7502  -10.5199    2.7670 H   0  0  0  0  0  0  0  0  0  0  0  0
    7.1062   -9.7150    3.7228 H   0  0  0  0  0  0  0  0  0  0  0  0
    5.7108   -6.7793    4.2331 H   0  0  0  0  0  0  0  0  0  0  0  0
    8.1229   -7.4574    3.1663 H   0  0  0  0  0  0  0  0  0  0  0  0
    7.1680   -6.0681    0.2530 H   0  0  0  0  0  0  0  0  0  0  0  0
    7.6423   -7.3408    1.2922 H   0  0  0  0  0  0  0  0  0  0  0  0
    8.1043   -5.6993    1.7013 H   0  0  0  0  0  0  0  0  0  0  0  0
    5.3219   -7.2429    0.4845 H   0  0  0  0  0  0  0  0  0  0  0  0
    3.4562   -6.3644   -0.2655 H   0  0  0  0  0  0  0  0  0  0  0  0
    2.3212   -6.2958    1.7489 H   0  0  0  0  0  0  0  0  0  0  0  0
    5.2802   -5.1906   -0.4762 H   0  0  0  0  0  0  0  0  0  0  0  0
    4.6074   -4.0703   -1.9858 H   0  0  0  0  0  0  0  0  0  0  0  0
    2.6228   -4.7063   -1.8565 H   0  0  0  0  0  0  0  0  0  0  0  0
    4.2876   -1.6164   -1.5588 H   0  0  0  0  0  0  0  0  0  0  0  0
    5.4124   -2.0499    2.5459 H   0  0  0  0  0  0  0  0  0  0  0  0
    6.3490   -0.5256    1.9141 H   0  0  0  0  0  0  0  0  0  0  0  0
    4.3789   -0.6534    0.6291 H   0  0  0  0  0  0  0  0  0  0  0  0
    2.7237   -1.1975    1.8979 H   0  0  0  0  0  0  0  0  0  0  0  0
    1.8026   -1.9646    0.2713 H   0  0  0  0  0  0  0  0  0  0  0  0
    3.6264   -2.0610    3.6551 H   0  0  0  0  0  0  0  0  0  0  0  0
    1.3459   -5.0359    4.7888 H   0  0  0  0  0  0  0  0  0  0  0  0
    5.8115   -2.6459    4.4951 H   0  0  0  0  0  0  0  0  0  0  0  0
    5.8956   -4.2769    5.1085 H   0  0  0  0  0  0  0  0  0  0  0  0
    4.5517   -3.2454    5.5101 H   0  0  0  0  0  0  0  0  0  0  0  0
    6.6033   -4.2625    2.8553 H   0  0  0  0  0  0  0  0  0  0  0  0
    5.0769   -9.5334    0.4738 H   0  0  0  0  0  0  0  0  0  0  0  0
    3.4208   -8.9918    0.2785 H   0  0  0  0  0  0  0  0  0  0  0  0
    3.7995  -10.2299    1.4067 H   0  0  0  0  0  0  0  0  0  0  0  0
    1.5767   -7.3730    4.7087 H   0  0  0  0  0  0  0  0  0  0  0  0
    1.3730  -10.2858    5.6713 H   0  0  0  0  0  0  0  0  0  0  0  0
    0.6084   -8.9435    7.6943 H   0  0  0  0  0  0  0  0  0  0  0  0
   -0.7387   -9.1627    6.5711 H   0  0  0  0  0  0  0  0  0  0  0  0
    0.1303   -7.6202    6.6222 H   0  0  0  0  0  0  0  0  0  0  0  0
  1  2  2  0
  1 40  1  0
  1 41  1  0
  2 32  1  0
  2  3  1  0
  3  4  1  0
  3  5  1  0
  3 42  1  1
  4 43  1  0
  5 31  1  0
  5  6  1  6
  5  7  1  0
  6 44  1  0
  6 45  1  0
  6 46  1  0
  7  8  1  0
  7 32  1  0
  7 47  1  6
  8  9  1  0
  8 10  1  0
  8 48  1  6
  9 49  1  0
 10 17  1  0
 10 11  1  0
 10 50  1  6
 11 12  1  0
 11 13  1  0
 11 51  1  6
 12 52  1  0
 13 20  1  0
 13 14  1  0
 13 53  1  6
 14 15  1  0
 15 16  2  0
 17 15  1  6
 17 31  1  0
 17 18  1  0
 18 19  1  0
 18 20  1  0
 18 54  1  1
 19 55  1  0
 20 21  1  0
 20 56  1  6
 21 22  1  0
 21 57  1  1
 21 23  1  0
 22 58  1  0
 23 59  1  1
 23 29  1  0
 23 24  1  0
 24 26  2  0
 24 25  1  0
 26 27  1  0
 26 60  1  0
 27 29  1  0
 27 28  2  0
 29 30  1  1
 29 31  1  0
 30 61  1  0
 30 62  1  0
 30 63  1  0
 31 64  1  1
 32 33  1  0
 32 34  1  1
 33 65  1  0
 33 66  1  0
 33 67  1  0
 34 35  1  0
 35 36  2  0
 35 37  1  0
 37 38  2  3
 37 68  1  0
 38 39  1  0
 38 69  1  0
 39 70  1  0
 39 71  1  0
 39 72  1  0
M  CHG  1  25  -1
M  END
>  <i_m_ct_stereo_status>  (222) 
1

>  <s_m_source_file>  (222) 
/var/tmp/pbs.5076255.sched01/tmpavn81tjv/78c0r2i372.sdf

>  <i_m_source_file_index>  (222) 
8

>  <i_lp_mmshare_version>  (222) 
48012

>  <i_f3d_flags>  (222) 
0

>  <s_epik_input>  (222) 
W0NIM11cW0NIXT1bQ0hdXEMoPU8pT1tDQF0xKFtDSDNdKUMoPVtDSDJdKVtDQEBIXShbT0hdKVtDQEBdKFtDSDNdKShbQ0BASF0xW0NAQEhdKFtPSF0pW0NAQEhdMltDQEBdMzQ1KVtDQEBIXTVbQ0BAXTYoW0NIM10pW0NASF0oQyg9TylbQ0gyXUM2PU8pW0NASF0oW09IXSlbQ0BASF0oW0NAQEhdNFtPSF0pW0NASF0oW0NAQEhdMltPSF0pT0MzPU8=

>  <s_epik_cmdline>  (222) 
J2VwaWtfcHl0aG9uJywgJy1waHQnLCAnMi4wJywgJy1waCcsICc3LjAnLCAnLXRuJywgJzgnLCAnLW1hJywgJzIwMCcsICctaW1hZScsICc8aW5maWxlLm1hZT4nLCAnLW9tYWUnLCAnPG91dGZpbGUubWFlPic=

>  <r_lp_tautomer_probability>  (222) 
1

>  <r_epik_Ionization_Penalty>  (222) 
2.06701

>  <r_epik_Ionization_Penalty_Charging>  (222) 
0.00654894

>  <r_epik_Ionization_Penalty_Neutral>  (222) 
2.06046

>  <r_epik_State_Penalty>  (222) 
0.683795

>  <r_epik_Charging_Adjusted_Penalty>  (222) 
0.690344

>  <i_epik_Tot_Q>  (222) 
-1

>  <i_epik_Tot_abs_Q>  (222) 
1

>  <s_epik_Chemistry_Notes>  (222) 
This compound has an ester and may undergo hydrolysis at high or low pH.

>  <s_lp_Force_Field>  (222) 
OPLS3e

>  <r_lp_Energy>  (222) 
195.944

>  <b_lp_Chiralities_Consistent>  (222) 
1

>  <s_lp_Variant>  (222) 
66:0-3

>  <s_i_glide_gridfile>  (222) 
pfpi4k_grid

>  <i_i_glide_lignum>  (222) 
8

>  <i_i_glide_rotatable_bonds>  (222) 
8

>  <r_i_docking_score>  (222) 
-3.26099

>  <r_i_glide_ligand_efficiency>  (222) 
-0.0836152

>  <r_i_glide_ligand_efficiency_sa>  (222) 
-0.283557

>  <r_i_glide_ligand_efficiency_ln>  (222) 
-0.699249

>  <r_i_glide_gscore>  (222) 
-3.26099

>  <r_i_glide_lipo>  (222) 
-0.444173

>  <r_i_glide_hbond>  (222) 
0

>  <r_i_glide_metal>  (222) 
-0

>  <r_i_glide_rewards>  (222) 
-0.660502

>  <r_i_glide_evdw>  (222) 
-26.279

>  <r_i_glide_ecoul>  (222) 
-6.54847

>  <r_i_glide_erotb>  (222) 
0.146088

>  <r_i_glide_esite>  (222) 
-0.00618289

>  <r_i_glide_emodel>  (222) 
-46.0186

>  <r_i_glide_energy>  (222) 
-32.8275

>  <r_i_glide_einternal>  (222) 
2.37243

>  <r_i_glide_intrahb_reward>  (222) 
-0.5

>  <i_i_glide_confnum>  (222) 
1

>  <i_i_glide_posenum>  (222) 
11

>  <r_i_glide_eff_state_penalty>  (222) 
0

>  <ligand_id>  (222) 
66

>  <original_smiles>  (222) 
C=C1C(O)C2(C)C(C(O)C3C(O)C4OC(=O)C35C(O)C4C(O)C3C(=O)CC(=O)C3(C)C25)C1(C)OC(=O)C=CC

>  <smiles>  (222) 
[H]OC1([H])C(=C([H])[H])C(OC(=O)C([H])=C([H])C([H])([H])[H])(C([H])([H])[H])C2([H])C([H])(O[H])C3([H])C([H])(O[H])C4([H])OC(=O)C35C([H])(O[H])C4([H])C([H])(O[H])C3([H])C([O-])=C([H])C(=O)C3(C([H])([H])[H])C5([H])C12C([H])([H])[H]

$$$$
66:2:2
     RDKit          3D

 72 77  0  0  1  0  0  0  0  0999 V2000
    2.0171   -3.7935    8.7333 C   0  0  0  0  0  0  0  0  0  0  0  0
    1.9397   -4.4532    7.5590 C   0  0  0  0  0  0  0  0  0  0  0  0
    3.1363   -5.1231    6.9013 C   0  0  1  0  0  0  0  0  0  0  0  0
    4.3134   -5.1432    7.6882 O   0  0  0  0  0  0  0  0  0  0  0  0
    2.5977   -6.4971    6.3859 C   0  0  1  0  0  0  0  0  0  0  0  0
    2.9325   -7.4502    7.5904 C   0  0  0  0  0  0  0  0  0  0  0  0
    1.0428   -6.3073    6.3674 C   0  0  2  0  0  0  0  0  0  0  0  0
    0.3028   -7.0832    5.2310 C   0  0  1  0  0  0  0  0  0  0  0  0
    0.0349   -6.3034    4.0924 O   0  0  0  0  0  0  0  0  0  0  0  0
    1.0340   -8.4403    4.9375 C   0  0  1  0  0  0  0  0  0  0  0  0
    0.2798   -9.6433    4.3353 C   0  0  1  0  0  0  0  0  0  0  0  0
   -0.9487   -9.4396    3.6895 O   0  0  0  0  0  0  0  0  0  0  0  0
    1.3503  -10.4660    3.6011 C   0  0  2  0  0  0  0  0  0  0  0  0
    2.1543  -10.8915    4.7592 O   0  0  0  0  0  0  0  0  0  0  0  0
    2.8288   -9.9005    5.5145 C   0  0  0  0  0  0  0  0  0  0  0  0
    3.5635  -10.0833    6.4691 O   0  0  0  0  0  0  0  0  0  0  0  0
    2.6282   -8.5491    4.7692 C   0  0  1  0  0  0  0  0  0  0  0  0
    3.3695   -9.0953    3.4737 C   0  0  1  0  0  0  0  0  0  0  0  0
    4.4932   -9.9919    3.5187 O   0  0  0  0  0  0  0  0  0  0  0  0
    2.2665   -9.6070    2.6145 C   0  0  2  0  0  0  0  0  0  0  0  0
    1.7977   -8.2789    1.9030 C   0  0  1  0  0  0  0  0  0  0  0  0
    0.4062   -8.1770    1.7119 O   0  0  0  0  0  0  0  0  0  0  0  0
    2.5392   -6.8589    2.1408 C   0  0  1  0  0  0  0  0  0  0  0  0
    1.8248   -5.6939    1.4215 C   0  0  0  0  0  0  0  0  0  0  0  0
    1.4031   -5.9329    0.2628 O   0  0  0  0  0  0  0  0  0  0  0  0
    1.8183   -4.6246    2.2269 C   0  0  0  0  0  0  0  0  0  0  0  0
    2.5387   -4.8115    3.4478 C   0  0  0  0  0  0  0  0  0  0  0  0
    2.8220   -3.8645    4.1506 O   0  0  0  0  0  0  0  0  0  0  0  0
    3.1500   -6.2405    3.5678 C   0  0  2  0  0  0  0  0  0  0  0  0
    4.6488   -5.8880    3.3366 C   0  0  0  0  0  0  0  0  0  0  0  0
    3.1687   -7.0946    5.0115 C   0  0  1  0  0  0  0  0  0  0  0  0
    0.6390   -4.8621    6.8545 C   0  0  1  0  0  0  0  0  0  0  0  0
   -0.6050   -4.9502    7.7830 C   0  0  0  0  0  0  0  0  0  0  0  0
    0.3434   -3.9856    5.7389 O   0  0  0  0  0  0  0  0  0  0  0  0
    0.1441   -2.6290    5.8963 C   0  0  0  0  0  0  0  0  0  0  0  0
   -0.0474   -2.0564    6.9646 O   0  0  0  0  0  0  0  0  0  0  0  0
    0.2235   -1.9094    4.5962 C   0  0  0  0  0  0  0  0  0  0  0  0
   -0.0100   -0.5925    4.5105 C   0  0  0  0  0  0  0  0  0  0  0  0
    0.0670    0.1985    3.2225 C   0  0  0  0  0  0  0  0  0  0  0  0
    1.1267   -3.4196    9.2158 H   0  0  0  0  0  0  0  0  0  0  0  0
    2.9602   -3.6258    9.2323 H   0  0  0  0  0  0  0  0  0  0  0  0
    3.4575   -4.4788    6.1233 H   0  0  0  0  0  0  0  0  0  0  0  0
    4.2248   -5.7814    8.3680 H   0  0  0  0  0  0  0  0  0  0  0  0
    2.2984   -8.3369    7.6280 H   0  0  0  0  0  0  0  0  0  0  0  0
    2.7631   -6.9764    8.5542 H   0  0  0  0  0  0  0  0  0  0  0  0
    3.9741   -7.7803    7.5676 H   0  0  0  0  0  0  0  0  0  0  0  0
    0.7084   -6.8904    7.2236 H   0  0  0  0  0  0  0  0  0  0  0  0
   -0.6953   -7.3215    5.5977 H   0  0  0  0  0  0  0  0  0  0  0  0
    0.8239   -6.2740    3.5662 H   0  0  0  0  0  0  0  0  0  0  0  0
    0.8860   -8.7533    5.9708 H   0  0  0  0  0  0  0  0  0  0  0  0
   -0.0312  -10.2868    5.1602 H   0  0  0  0  0  0  0  0  0  0  0  0
   -1.5585  -10.0235    4.1753 H   0  0  0  0  0  0  0  0  0  0  0  0
    0.9113  -11.3266    3.0921 H   0  0  0  0  0  0  0  0  0  0  0  0
    4.0126   -8.3917    2.9883 H   0  0  0  0  0  0  0  0  0  0  0  0
    4.1779  -10.8538    3.7403 H   0  0  0  0  0  0  0  0  0  0  0  0
    2.6851  -10.2677    1.8587 H   0  0  0  0  0  0  0  0  0  0  0  0
    2.0983   -8.4773    0.8975 H   0  0  0  0  0  0  0  0  0  0  0  0
    0.1657   -8.8495    1.0798 H   0  0  0  0  0  0  0  0  0  0  0  0
    3.4409   -6.9828    1.5448 H   0  0  0  0  0  0  0  0  0  0  0  0
    1.4324   -3.6551    1.9885 H   0  0  0  0  0  0  0  0  0  0  0  0
    5.2884   -6.7439    3.1697 H   0  0  0  0  0  0  0  0  0  0  0  0
    5.0658   -5.3509    4.1911 H   0  0  0  0  0  0  0  0  0  0  0  0
    4.7839   -5.2307    2.4787 H   0  0  0  0  0  0  0  0  0  0  0  0
    4.2253   -7.2602    5.2412 H   0  0  0  0  0  0  0  0  0  0  0  0
   -0.3880   -5.5313    8.6854 H   0  0  0  0  0  0  0  0  0  0  0  0
   -1.4253   -5.4141    7.2470 H   0  0  0  0  0  0  0  0  0  0  0  0
   -0.9813   -3.9924    8.1529 H   0  0  0  0  0  0  0  0  0  0  0  0
    0.4891   -2.4758    3.7138 H   0  0  0  0  0  0  0  0  0  0  0  0
   -0.2642   -0.0176    5.3925 H   0  0  0  0  0  0  0  0  0  0  0  0
    0.7882    1.0093    3.3037 H   0  0  0  0  0  0  0  0  0  0  0  0
   -0.9078    0.6285    2.9843 H   0  0  0  0  0  0  0  0  0  0  0  0
    0.3622   -0.4445    2.3979 H   0  0  0  0  0  0  0  0  0  0  0  0
  1  2  2  0
  1 40  1  0
  1 41  1  0
  2 32  1  0
  2  3  1  0
  3  4  1  0
  3  5  1  0
  3 42  1  6
  4 43  1  0
  5 31  1  0
  5  6  1  1
  5  7  1  0
  6 44  1  0
  6 45  1  0
  6 46  1  0
  7  8  1  0
  7 32  1  0
  7 47  1  1
  8  9  1  0
  8 10  1  0
  8 48  1  1
  9 49  1  0
 10 17  1  0
 10 11  1  0
 10 50  1  1
 11 12  1  0
 11 13  1  0
 11 51  1  1
 12 52  1  0
 13 20  1  0
 13 14  1  0
 13 53  1  6
 14 15  1  0
 15 16  2  0
 17 15  1  1
 17 31  1  0
 17 18  1  0
 18 19  1  0
 18 20  1  0
 18 54  1  6
 19 55  1  0
 20 21  1  0
 20 56  1  6
 21 22  1  0
 21 57  1  6
 21 23  1  0
 22 58  1  0
 23 59  1  6
 23 29  1  0
 23 24  1  0
 24 26  2  0
 24 25  1  0
 26 27  1  0
 26 60  1  0
 27 29  1  0
 27 28  2  0
 29 30  1  6
 29 31  1  0
 30 61  1  0
 30 62  1  0
 30 63  1  0
 31 64  1  1
 32 33  1  0
 32 34  1  6
 33 65  1  0
 33 66  1  0
 33 67  1  0
 34 35  1  0
 35 36  2  0
 35 37  1  0
 37 38  2  3
 37 68  1  0
 38 39  1  0
 38 69  1  0
 39 70  1  0
 39 71  1  0
 39 72  1  0
M  CHG  1  25  -1
M  END
>  <i_m_ct_stereo_status>  (223) 
1

>  <s_m_source_file>  (223) 
/var/tmp/pbs.5076255.sched01/tmpavn81tjv/78c0r2i372.sdf

>  <i_m_source_file_index>  (223) 
8

>  <i_lp_mmshare_version>  (223) 
48012

>  <i_f3d_flags>  (223) 
0

>  <s_epik_input>  (223) 
W0NIM11cW0NIXT1bQ0hdXEMoPU8pT1tDQF0xKFtDSDNdKUMoPVtDSDJdKVtDQEBIXShbT0hdKVtDQEBdKFtDSDNdKShbQ0BASF0xW0NAQEhdKFtPSF0pW0NAQEhdMltDQEBdMzQ1KVtDQEBIXTVbQ0BAXTYoW0NIM10pW0NASF0oQyg9TylbQ0gyXUM2PU8pW0NASF0oW09IXSlbQ0BASF0oW0NAQEhdNFtPSF0pW0NASF0oW0NAQEhdMltPSF0pT0MzPU8=

>  <s_epik_cmdline>  (223) 
J2VwaWtfcHl0aG9uJywgJy1waHQnLCAnMi4wJywgJy1waCcsICc3LjAnLCAnLXRuJywgJzgnLCAnLW1hJywgJzIwMCcsICctaW1hZScsICc8aW5maWxlLm1hZT4nLCAnLW9tYWUnLCAnPG91dGZpbGUubWFlPic=

>  <r_lp_tautomer_probability>  (223) 
1

>  <r_epik_Ionization_Penalty>  (223) 
2.06701

>  <r_epik_Ionization_Penalty_Charging>  (223) 
0.00654894

>  <r_epik_Ionization_Penalty_Neutral>  (223) 
2.06046

>  <r_epik_State_Penalty>  (223) 
0.683795

>  <r_epik_Charging_Adjusted_Penalty>  (223) 
0.690344

>  <i_epik_Tot_Q>  (223) 
-1

>  <i_epik_Tot_abs_Q>  (223) 
1

>  <s_epik_Chemistry_Notes>  (223) 
This compound has an ester and may undergo hydrolysis at high or low pH.

>  <s_lp_Force_Field>  (223) 
OPLS3e

>  <r_lp_Energy>  (223) 
195.944

>  <b_lp_Chiralities_Consistent>  (223) 
1

>  <s_lp_Variant>  (223) 
66:0-3

>  <s_i_glide_gridfile>  (223) 
pfpi4k_grid

>  <i_i_glide_lignum>  (223) 
8

>  <i_i_glide_rotatable_bonds>  (223) 
8

>  <r_i_docking_score>  (223) 
-2.94586

>  <r_i_glide_ligand_efficiency>  (223) 
-0.0755348

>  <r_i_glide_ligand_efficiency_sa>  (223) 
-0.256154

>  <r_i_glide_ligand_efficiency_ln>  (223) 
-0.631675

>  <r_i_glide_gscore>  (223) 
-2.94586

>  <r_i_glide_lipo>  (223) 
-0.157544

>  <r_i_glide_hbond>  (223) 
-0.202244

>  <r_i_glide_metal>  (223) 
-0

>  <r_i_glide_rewards>  (223) 
0

>  <r_i_glide_evdw>  (223) 
-24.0177

>  <r_i_glide_ecoul>  (223) 
-10.2905

>  <r_i_glide_erotb>  (223) 
0.208697

>  <r_i_glide_esite>  (223) 
-0.0503039

>  <r_i_glide_emodel>  (223) 
-42.0713

>  <r_i_glide_energy>  (223) 
-34.3082

>  <r_i_glide_einternal>  (223) 
2.42241

>  <r_i_glide_intrahb_reward>  (223) 
-0

>  <i_i_glide_confnum>  (223) 
1

>  <i_i_glide_posenum>  (223) 
19

>  <r_i_glide_eff_state_penalty>  (223) 
0

>  <ligand_id>  (223) 
66

>  <original_smiles>  (223) 
C=C1C(O)C2(C)C(C(O)C3C(O)C4OC(=O)C35C(O)C4C(O)C3C(=O)CC(=O)C3(C)C25)C1(C)OC(=O)C=CC

>  <smiles>  (223) 
[H]OC1([H])C(=C([H])[H])C(OC(=O)C([H])=C([H])C([H])([H])[H])(C([H])([H])[H])C2([H])C([H])(O[H])C3([H])C([H])(O[H])C4([H])OC(=O)C35C([H])(O[H])C4([H])C([H])(O[H])C3([H])C([O-])=C([H])C(=O)C3(C([H])([H])[H])C5([H])C12C([H])([H])[H]

$$$$
66:3:0
     RDKit          3D

 72 77  0  0  1  0  0  0  0  0999 V2000
    2.1270   -4.1314    8.9564 C   0  0  0  0  0  0  0  0  0  0  0  0
    2.0700   -4.7350    7.7551 C   0  0  0  0  0  0  0  0  0  0  0  0
    3.2843   -5.2829    7.0131 C   0  0  1  0  0  0  0  0  0  0  0  0
    4.4919   -5.2495    7.7564 O   0  0  0  0  0  0  0  0  0  0  0  0
    2.8258   -6.6645    6.4620 C   0  0  1  0  0  0  0  0  0  0  0  0
    3.2409   -7.6499    7.6133 C   0  0  0  0  0  0  0  0  0  0  0  0
    1.2598   -6.5733    6.4587 C   0  0  2  0  0  0  0  0  0  0  0  0
    0.5445   -7.3612    5.3040 C   0  0  1  0  0  0  0  0  0  0  0  0
    0.2063   -6.6279    4.1552 O   0  0  0  0  0  0  0  0  0  0  0  0
    1.3492   -8.6621    4.9722 C   0  0  1  0  0  0  0  0  0  0  0  0
    0.6599   -9.8788    4.3219 C   0  0  1  0  0  0  0  0  0  0  0  0
   -0.5812   -9.6610    3.6775 O   0  0  0  0  0  0  0  0  0  0  0  0
    1.7686  -10.5803    3.5275 C   0  0  2  0  0  0  0  0  0  0  0  0
    2.6196  -11.0193    4.6511 O   0  0  0  0  0  0  0  0  0  0  0  0
    3.2489  -10.0185    5.4359 C   0  0  0  0  0  0  0  0  0  0  0  0
    3.9968  -10.2183    6.3855 O   0  0  0  0  0  0  0  0  0  0  0  0
    2.9537   -8.6474    4.7600 C   0  0  1  0  0  0  0  0  0  0  0  0
    3.7079   -9.0889    3.4262 C   0  0  1  0  0  0  0  0  0  0  0  0
    4.8852   -9.9149    3.4025 O   0  0  0  0  0  0  0  0  0  0  0  0
    2.6161   -9.6222    2.5665 C   0  0  2  0  0  0  0  0  0  0  0  0
    2.0522   -8.2935    1.9252 C   0  0  1  0  0  0  0  0  0  0  0  0
    0.6525   -8.2545    1.7894 O   0  0  0  0  0  0  0  0  0  0  0  0
    2.7238   -6.8398    2.2063 C   0  0  1  0  0  0  0  0  0  0  0  0
    1.9410   -5.7035    1.5285 C   0  0  0  0  0  0  0  0  0  0  0  0
    1.5445   -5.9095    0.3588 O   0  0  0  0  0  0  0  0  0  0  0  0
    1.8693   -4.6428    2.3607 C   0  0  0  0  0  0  0  0  0  0  0  0
    2.5851   -4.8504    3.5894 C   0  0  0  0  0  0  0  0  0  0  0  0
    2.7888   -3.9036    4.3287 O   0  0  0  0  0  0  0  0  0  0  0  0
    3.2978   -6.2385    3.6463 C   0  0  2  0  0  0  0  0  0  0  0  0
    4.7759   -5.7795    3.4160 C   0  0  0  0  0  0  0  0  0  0  0  0
    3.4068   -7.1625    5.0499 C   0  0  1  0  0  0  0  0  0  0  0  0
    0.7860   -5.1856    7.0285 C   0  0  1  0  0  0  0  0  0  0  0  0
   -0.4352   -5.3679    7.9820 C   0  0  0  0  0  0  0  0  0  0  0  0
    0.4284   -4.2624    5.9796 O   0  0  0  0  0  0  0  0  0  0  0  0
    0.1169   -2.9432    6.2161 C   0  0  0  0  0  0  0  0  0  0  0  0
   -0.0306   -2.4529    7.3379 O   0  0  0  0  0  0  0  0  0  0  0  0
   -0.0040   -2.1737    4.9597 C   0  0  0  0  0  0  0  0  0  0  0  0
   -0.3784   -0.8767    4.8508 C   0  0  0  0  0  0  0  0  0  0  0  0
   -0.7844    0.1284    5.9255 C   0  0  0  0  0  0  0  0  0  0  0  0
    1.2277   -3.8391    9.4777 H   0  0  0  0  0  0  0  0  0  0  0  0
    3.0673   -3.9278    9.4511 H   0  0  0  0  0  0  0  0  0  0  0  0
    3.5198   -4.5825    6.2534 H   0  0  0  0  0  0  0  0  0  0  0  0
    4.4711   -5.9259    8.4149 H   0  0  0  0  0  0  0  0  0  0  0  0
    2.6619   -8.5711    7.6300 H   0  0  0  0  0  0  0  0  0  0  0  0
    3.0713   -7.2278    8.6037 H   0  0  0  0  0  0  0  0  0  0  0  0
    4.2977   -7.9201    7.5539 H   0  0  0  0  0  0  0  0  0  0  0  0
    0.9744   -7.2097    7.2962 H   0  0  0  0  0  0  0  0  0  0  0  0
   -0.4330   -7.6670    5.6787 H   0  0  0  0  0  0  0  0  0  0  0  0
    0.0854   -7.2538    3.4430 H   0  0  0  0  0  0  0  0  0  0  0  0
    1.2471   -9.0161    5.9994 H   0  0  0  0  0  0  0  0  0  0  0  0
    0.3641  -10.5819    5.1063 H   0  0  0  0  0  0  0  0  0  0  0  0
   -1.2432  -10.1502    4.1870 H   0  0  0  0  0  0  0  0  0  0  0  0
    1.3828  -11.4485    2.9880 H   0  0  0  0  0  0  0  0  0  0  0  0
    4.3019   -8.3260    2.9694 H   0  0  0  0  0  0  0  0  0  0  0  0
    4.6285  -10.8179    3.5432 H   0  0  0  0  0  0  0  0  0  0  0  0
    3.0490  -10.2286    1.7732 H   0  0  0  0  0  0  0  0  0  0  0  0
    2.3359   -8.4338    0.8780 H   0  0  0  0  0  0  0  0  0  0  0  0
    0.3999   -8.9023    1.1390 H   0  0  0  0  0  0  0  0  0  0  0  0
    3.6308   -6.8999    1.5965 H   0  0  0  0  0  0  0  0  0  0  0  0
    1.4203   -3.7015    2.1266 H   0  0  0  0  0  0  0  0  0  0  0  0
    5.4618   -6.5940    3.1976 H   0  0  0  0  0  0  0  0  0  0  0  0
    5.1811   -5.2685    4.2899 H   0  0  0  0  0  0  0  0  0  0  0  0
    4.8680   -5.0812    2.5862 H   0  0  0  0  0  0  0  0  0  0  0  0
    4.4737   -7.2679    5.2597 H   0  0  0  0  0  0  0  0  0  0  0  0
   -0.1721   -5.9622    8.8587 H   0  0  0  0  0  0  0  0  0  0  0  0
   -1.2444   -5.8571    7.4448 H   0  0  0  0  0  0  0  0  0  0  0  0
   -0.8562   -4.4466    8.3872 H   0  0  0  0  0  0  0  0  0  0  0  0
    0.2504   -2.7059    4.0520 H   0  0  0  0  0  0  0  0  0  0  0  0
   -0.3847   -0.4620    3.8541 H   0  0  0  0  0  0  0  0  0  0  0  0
    0.0080    0.8649    6.0662 H   0  0  0  0  0  0  0  0  0  0  0  0
   -1.0030   -0.3008    6.8987 H   0  0  0  0  0  0  0  0  0  0  0  0
   -1.6800    0.6634    5.6061 H   0  0  0  0  0  0  0  0  0  0  0  0
  1  2  2  0
  1 40  1  0
  1 41  1  0
  2 32  1  0
  2  3  1  0
  3  4  1  0
  3  5  1  0
  3 42  1  6
  4 43  1  0
  5 31  1  0
  5  6  1  1
  5  7  1  0
  6 44  1  0
  6 45  1  0
  6 46  1  0
  7  8  1  0
  7 32  1  0
  7 47  1  1
  8  9  1  0
  8 10  1  0
  8 48  1  1
  9 49  1  0
 10 17  1  0
 10 11  1  0
 10 50  1  1
 11 12  1  0
 11 13  1  0
 11 51  1  1
 12 52  1  0
 13 20  1  0
 13 14  1  0
 13 53  1  6
 14 15  1  0
 15 16  2  0
 17 15  1  1
 17 31  1  0
 17 18  1  0
 18 19  1  0
 18 20  1  0
 18 54  1  6
 19 55  1  0
 20 21  1  0
 20 56  1  6
 21 22  1  0
 21 57  1  6
 21 23  1  0
 22 58  1  0
 23 59  1  6
 23 29  1  0
 23 24  1  0
 24 26  2  0
 24 25  1  0
 26 27  1  0
 26 60  1  0
 27 29  1  0
 27 28  2  0
 29 30  1  6
 29 31  1  0
 30 61  1  0
 30 62  1  0
 30 63  1  0
 31 64  1  1
 32 33  1  0
 32 34  1  6
 33 65  1  0
 33 66  1  0
 33 67  1  0
 34 35  1  0
 35 36  2  0
 35 37  1  0
 37 38  2  3
 37 68  1  0
 38 39  1  0
 38 69  1  0
 39 70  1  0
 39 71  1  0
 39 72  1  0
M  CHG  1  25  -1
M  END
>  <i_m_ct_stereo_status>  (224) 
1

>  <s_m_source_file>  (224) 
/var/tmp/pbs.5076255.sched01/tmpavn81tjv/78c0r2i372.sdf

>  <i_m_source_file_index>  (224) 
9

>  <i_lp_mmshare_version>  (224) 
48012

>  <i_f3d_flags>  (224) 
0

>  <s_epik_input>  (224) 
W0NIM11cW0NIXT1bQ0hdXEMoPU8pT1tDQF0xKFtDSDNdKUMoPVtDSDJdKVtDQEBIXShbT0hdKVtDQEBdKFtDSDNdKShbQ0BASF0xW0NAQEhdKFtPSF0pW0NAQEhdMltDQEBdMzQ1KVtDQEBIXTVbQ0BAXTYoW0NIM10pW0NASF0oQyg9TylbQ0gyXUM2PU8pW0NASF0oW09IXSlbQ0BASF0oW0NAQEhdNFtPSF0pW0NASF0oW0NAQEhdMltPSF0pT0MzPU8=

>  <s_epik_cmdline>  (224) 
J2VwaWtfcHl0aG9uJywgJy1waHQnLCAnMi4wJywgJy1waCcsICc3LjAnLCAnLXRuJywgJzgnLCAnLW1hJywgJzIwMCcsICctaW1hZScsICc8aW5maWxlLm1hZT4nLCAnLW9tYWUnLCAnPG91dGZpbGUubWFlPic=

>  <r_lp_tautomer_probability>  (224) 
1

>  <r_epik_Ionization_Penalty>  (224) 
2.06701

>  <r_epik_Ionization_Penalty_Charging>  (224) 
0.00654894

>  <r_epik_Ionization_Penalty_Neutral>  (224) 
2.06046

>  <r_epik_State_Penalty>  (224) 
0.683795

>  <r_epik_Charging_Adjusted_Penalty>  (224) 
0.690344

>  <i_epik_Tot_Q>  (224) 
-1

>  <i_epik_Tot_abs_Q>  (224) 
1

>  <s_epik_Chemistry_Notes>  (224) 
This compound has an ester and may undergo hydrolysis at high or low pH.

>  <s_lp_Force_Field>  (224) 
OPLS3e

>  <r_lp_Energy>  (224) 
197.31

>  <b_lp_Chiralities_Consistent>  (224) 
1

>  <s_lp_Variant>  (224) 
66:0-4

>  <s_i_glide_gridfile>  (224) 
pfpi4k_grid

>  <i_i_glide_lignum>  (224) 
9

>  <i_i_glide_rotatable_bonds>  (224) 
8

>  <r_i_docking_score>  (224) 
-3.25871

>  <r_i_glide_ligand_efficiency>  (224) 
-0.0835566

>  <r_i_glide_ligand_efficiency_sa>  (224) 
-0.283358

>  <r_i_glide_ligand_efficiency_ln>  (224) 
-0.698759

>  <r_i_glide_gscore>  (224) 
-3.25871

>  <r_i_glide_lipo>  (224) 
-0.133835

>  <r_i_glide_hbond>  (224) 
-0.166786

>  <r_i_glide_metal>  (224) 
-0

>  <r_i_glide_rewards>  (224) 
-0.5

>  <r_i_glide_evdw>  (224) 
-25.0526

>  <r_i_glide_ecoul>  (224) 
-9.1427

>  <r_i_glide_erotb>  (224) 
0.208697

>  <r_i_glide_esite>  (224) 
-0.0427456

>  <r_i_glide_emodel>  (224) 
-48.016

>  <r_i_glide_energy>  (224) 
-34.1953

>  <r_i_glide_einternal>  (224) 
3.32182

>  <r_i_glide_intrahb_reward>  (224) 
-0.5

>  <i_i_glide_confnum>  (224) 
5

>  <i_i_glide_posenum>  (224) 
33

>  <r_i_glide_eff_state_penalty>  (224) 
0

>  <ligand_id>  (224) 
66

>  <original_smiles>  (224) 
C=C1C(O)C2(C)C(C(O)C3C(O)C4OC(=O)C35C(O)C4C(O)C3C(=O)CC(=O)C3(C)C25)C1(C)OC(=O)C=CC

>  <smiles>  (224) 
[H]OC1([H])C(=C([H])[H])C(OC(=O)C([H])=C([H])C([H])([H])[H])(C([H])([H])[H])C2([H])C([H])(O[H])C3([H])C([H])(O[H])C4([H])OC(=O)C35C([H])(O[H])C4([H])C([H])(O[H])C3([H])C([O-])=C([H])C(=O)C3(C([H])([H])[H])C5([H])C12C([H])([H])[H]

$$$$
66:3:1
     RDKit          3D

 72 77  0  0  1  0  0  0  0  0999 V2000
    2.0812   -3.9950    8.8720 C   0  0  0  0  0  0  0  0  0  0  0  0
    2.0339   -4.6233    7.6796 C   0  0  0  0  0  0  0  0  0  0  0  0
    3.2531   -5.1861    6.9605 C   0  0  1  0  0  0  0  0  0  0  0  0
    4.4560   -5.1305    7.7122 O   0  0  0  0  0  0  0  0  0  0  0  0
    2.8050   -6.5762    6.4292 C   0  0  1  0  0  0  0  0  0  0  0  0
    3.2112   -7.5364    7.6025 C   0  0  0  0  0  0  0  0  0  0  0  0
    1.2377   -6.4868    6.4125 C   0  0  2  0  0  0  0  0  0  0  0  0
    0.5312   -7.3003    5.2689 C   0  0  1  0  0  0  0  0  0  0  0  0
    0.1942   -6.5937    4.1060 O   0  0  0  0  0  0  0  0  0  0  0  0
    1.3385   -8.6028    4.9626 C   0  0  1  0  0  0  0  0  0  0  0  0
    0.6569   -9.8352    4.3368 C   0  0  1  0  0  0  0  0  0  0  0  0
   -0.5759   -9.6389    3.6804 O   0  0  0  0  0  0  0  0  0  0  0  0
    1.7708  -10.5471    3.5640 C   0  0  2  0  0  0  0  0  0  0  0  0
    2.6067  -10.9585    4.7089 O   0  0  0  0  0  0  0  0  0  0  0  0
    3.2352   -9.9506    5.4702 C   0  0  0  0  0  0  0  0  0  0  0  0
    3.9772  -10.1158    6.4353 O   0  0  0  0  0  0  0  0  0  0  0  0
    2.9458   -8.5922    4.7642 C   0  0  1  0  0  0  0  0  0  0  0  0
    3.7029   -9.0536    3.4370 C   0  0  1  0  0  0  0  0  0  0  0  0
    4.8618   -9.9083    3.4533 O   0  0  0  0  0  0  0  0  0  0  0  0
    2.6147   -9.6044    2.5888 C   0  0  2  0  0  0  0  0  0  0  0  0
    2.0615   -8.2851    1.9173 C   0  0  1  0  0  0  0  0  0  0  0  0
    0.6613   -8.2433    1.7693 O   0  0  0  0  0  0  0  0  0  0  0  0
    2.7279   -6.8272    2.1765 C   0  0  1  0  0  0  0  0  0  0  0  0
    1.9463   -5.6950    1.4798 C   0  0  0  0  0  0  0  0  0  0  0  0
    1.5562   -5.9265    0.3031 O   0  0  0  0  0  0  0  0  0  0  0  0
    1.8662   -4.6303    2.3001 C   0  0  0  0  0  0  0  0  0  0  0  0
    2.5756   -4.8210    3.5322 C   0  0  0  0  0  0  0  0  0  0  0  0
    2.7877   -3.8654    4.2542 O   0  0  0  0  0  0  0  0  0  0  0  0
    3.2941   -6.1999    3.6114 C   0  0  2  0  0  0  0  0  0  0  0  0
    4.7723   -5.7448    3.3804 C   0  0  0  0  0  0  0  0  0  0  0  0
    3.3963   -7.0993    5.0298 C   0  0  1  0  0  0  0  0  0  0  0  0
    0.7566   -5.0888    6.9566 C   0  0  1  0  0  0  0  0  0  0  0  0
   -0.4738   -5.2577    7.9020 C   0  0  0  0  0  0  0  0  0  0  0  0
    0.4004   -4.1880    5.8867 O   0  0  0  0  0  0  0  0  0  0  0  0
    0.0891   -2.8612    6.0980 C   0  0  0  0  0  0  0  0  0  0  0  0
   -0.0432   -2.3441    7.2116 O   0  0  0  0  0  0  0  0  0  0  0  0
   -0.0343   -2.1206    4.8258 C   0  0  0  0  0  0  0  0  0  0  0  0
   -0.5274   -0.8684    4.6762 C   0  0  0  0  0  0  0  0  0  0  0  0
   -1.1054    0.0937    5.7091 C   0  0  0  0  0  0  0  0  0  0  0  0
    1.1759   -3.6989    9.3809 H   0  0  0  0  0  0  0  0  0  0  0  0
    3.0171   -3.7815    9.3729 H   0  0  0  0  0  0  0  0  0  0  0  0
    3.4916   -4.4986    6.1946 H   0  0  0  0  0  0  0  0  0  0  0  0
    4.4261   -5.7836    8.3903 H   0  0  0  0  0  0  0  0  0  0  0  0
    2.6344   -8.4592    7.6326 H   0  0  0  0  0  0  0  0  0  0  0  0
    3.0338   -7.0944    8.5851 H   0  0  0  0  0  0  0  0  0  0  0  0
    4.2692   -7.8034    7.5586 H   0  0  0  0  0  0  0  0  0  0  0  0
    0.9464   -7.1061    7.2617 H   0  0  0  0  0  0  0  0  0  0  0  0
   -0.4463   -7.6021    5.6442 H   0  0  0  0  0  0  0  0  0  0  0  0
    0.0938   -7.2332    3.4049 H   0  0  0  0  0  0  0  0  0  0  0  0
    1.2396   -8.9442    5.9938 H   0  0  0  0  0  0  0  0  0  0  0  0
    0.3601  -10.5220    5.1346 H   0  0  0  0  0  0  0  0  0  0  0  0
   -1.2376  -10.1337    4.1707 H   0  0  0  0  0  0  0  0  0  0  0  0
    1.3949  -11.4294    3.0430 H   0  0  0  0  0  0  0  0  0  0  0  0
    4.3081   -8.3051    2.9652 H   0  0  0  0  0  0  0  0  0  0  0  0
    4.9916  -10.2739    2.5908 H   0  0  0  0  0  0  0  0  0  0  0  0
    3.0525  -10.2284    1.8138 H   0  0  0  0  0  0  0  0  0  0  0  0
    2.3556   -8.4489    0.8768 H   0  0  0  0  0  0  0  0  0  0  0  0
    0.4157   -8.9029    1.1328 H   0  0  0  0  0  0  0  0  0  0  0  0
    3.6391   -6.8958    1.5714 H   0  0  0  0  0  0  0  0  0  0  0  0
    1.4193   -3.6861    2.0715 H   0  0  0  0  0  0  0  0  0  0  0  0
    5.4634   -6.5618    3.1826 H   0  0  0  0  0  0  0  0  0  0  0  0
    5.1674   -5.2119    4.2455 H   0  0  0  0  0  0  0  0  0  0  0  0
    4.8635   -5.0624    2.5387 H   0  0  0  0  0  0  0  0  0  0  0  0
    4.4618   -7.1968    5.2507 H   0  0  0  0  0  0  0  0  0  0  0  0
   -0.2172   -5.8323    8.7918 H   0  0  0  0  0  0  0  0  0  0  0  0
   -1.2785   -5.7525    7.3621 H   0  0  0  0  0  0  0  0  0  0  0  0
   -0.9014   -4.3347    8.2871 H   0  0  0  0  0  0  0  0  0  0  0  0
    0.3246   -2.6315    3.9431 H   0  0  0  0  0  0  0  0  0  0  0  0
   -0.5109   -0.4624    3.6782 H   0  0  0  0  0  0  0  0  0  0  0  0
   -0.4076    0.9123    5.8923 H   0  0  0  0  0  0  0  0  0  0  0  0
   -1.3444   -0.3557    6.6680 H   0  0  0  0  0  0  0  0  0  0  0  0
   -2.0327    0.5257    5.3291 H   0  0  0  0  0  0  0  0  0  0  0  0
  1  2  2  0
  1 40  1  0
  1 41  1  0
  2 32  1  0
  2  3  1  0
  3  4  1  0
  3  5  1  0
  3 42  1  6
  4 43  1  0
  5 31  1  0
  5  6  1  1
  5  7  1  0
  6 44  1  0
  6 45  1  0
  6 46  1  0
  7  8  1  0
  7 32  1  0
  7 47  1  1
  8  9  1  0
  8 10  1  0
  8 48  1  1
  9 49  1  0
 10 17  1  0
 10 11  1  0
 10 50  1  1
 11 12  1  0
 11 13  1  0
 11 51  1  1
 12 52  1  0
 13 20  1  0
 13 14  1  0
 13 53  1  6
 14 15  1  0
 15 16  2  0
 17 15  1  1
 17 31  1  0
 17 18  1  0
 18 19  1  0
 18 20  1  0
 18 54  1  6
 19 55  1  0
 20 21  1  0
 20 56  1  6
 21 22  1  0
 21 57  1  6
 21 23  1  0
 22 58  1  0
 23 59  1  6
 23 29  1  0
 23 24  1  0
 24 26  2  0
 24 25  1  0
 26 27  1  0
 26 60  1  0
 27 29  1  0
 27 28  2  0
 29 30  1  6
 29 31  1  0
 30 61  1  0
 30 62  1  0
 30 63  1  0
 31 64  1  1
 32 33  1  0
 32 34  1  6
 33 65  1  0
 33 66  1  0
 33 67  1  0
 34 35  1  0
 35 36  2  0
 35 37  1  0
 37 38  2  3
 37 68  1  0
 38 39  1  0
 38 69  1  0
 39 70  1  0
 39 71  1  0
 39 72  1  0
M  CHG  1  25  -1
M  END
>  <i_m_ct_stereo_status>  (225) 
1

>  <s_m_source_file>  (225) 
/var/tmp/pbs.5076255.sched01/tmpavn81tjv/78c0r2i372.sdf

>  <i_m_source_file_index>  (225) 
9

>  <i_lp_mmshare_version>  (225) 
48012

>  <i_f3d_flags>  (225) 
0

>  <s_epik_input>  (225) 
W0NIM11cW0NIXT1bQ0hdXEMoPU8pT1tDQF0xKFtDSDNdKUMoPVtDSDJdKVtDQEBIXShbT0hdKVtDQEBdKFtDSDNdKShbQ0BASF0xW0NAQEhdKFtPSF0pW0NAQEhdMltDQEBdMzQ1KVtDQEBIXTVbQ0BAXTYoW0NIM10pW0NASF0oQyg9TylbQ0gyXUM2PU8pW0NASF0oW09IXSlbQ0BASF0oW0NAQEhdNFtPSF0pW0NASF0oW0NAQEhdMltPSF0pT0MzPU8=

>  <s_epik_cmdline>  (225) 
J2VwaWtfcHl0aG9uJywgJy1waHQnLCAnMi4wJywgJy1waCcsICc3LjAnLCAnLXRuJywgJzgnLCAnLW1hJywgJzIwMCcsICctaW1hZScsICc8aW5maWxlLm1hZT4nLCAnLW9tYWUnLCAnPG91dGZpbGUubWFlPic=

>  <r_lp_tautomer_probability>  (225) 
1

>  <r_epik_Ionization_Penalty>  (225) 
2.06701

>  <r_epik_Ionization_Penalty_Charging>  (225) 
0.00654894

>  <r_epik_Ionization_Penalty_Neutral>  (225) 
2.06046

>  <r_epik_State_Penalty>  (225) 
0.683795

>  <r_epik_Charging_Adjusted_Penalty>  (225) 
0.690344

>  <i_epik_Tot_Q>  (225) 
-1

>  <i_epik_Tot_abs_Q>  (225) 
1

>  <s_epik_Chemistry_Notes>  (225) 
This compound has an ester and may undergo hydrolysis at high or low pH.

>  <s_lp_Force_Field>  (225) 
OPLS3e

>  <r_lp_Energy>  (225) 
197.31

>  <b_lp_Chiralities_Consistent>  (225) 
1

>  <s_lp_Variant>  (225) 
66:0-4

>  <s_i_glide_gridfile>  (225) 
pfpi4k_grid

>  <i_i_glide_lignum>  (225) 
9

>  <i_i_glide_rotatable_bonds>  (225) 
8

>  <r_i_docking_score>  (225) 
-3.18222

>  <r_i_glide_ligand_efficiency>  (225) 
-0.0815954

>  <r_i_glide_ligand_efficiency_sa>  (225) 
-0.276707

>  <r_i_glide_ligand_efficiency_ln>  (225) 
-0.682359

>  <r_i_glide_gscore>  (225) 
-3.18222

>  <r_i_glide_lipo>  (225) 
-0.122288

>  <r_i_glide_hbond>  (225) 
-0.15255

>  <r_i_glide_metal>  (225) 
-0

>  <r_i_glide_rewards>  (225) 
-0.5

>  <r_i_glide_evdw>  (225) 
-25.5181

>  <r_i_glide_ecoul>  (225) 
-8.64978

>  <r_i_glide_erotb>  (225) 
0.208697

>  <r_i_glide_esite>  (225) 
-0.0427063

>  <r_i_glide_emodel>  (225) 
-47.4344

>  <r_i_glide_energy>  (225) 
-34.1679

>  <r_i_glide_einternal>  (225) 
3.8707

>  <r_i_glide_intrahb_reward>  (225) 
-0.5

>  <i_i_glide_confnum>  (225) 
4

>  <i_i_glide_posenum>  (225) 
11

>  <r_i_glide_eff_state_penalty>  (225) 
0

>  <ligand_id>  (225) 
66

>  <original_smiles>  (225) 
C=C1C(O)C2(C)C(C(O)C3C(O)C4OC(=O)C35C(O)C4C(O)C3C(=O)CC(=O)C3(C)C25)C1(C)OC(=O)C=CC

>  <smiles>  (225) 
[H]OC1([H])C(=C([H])[H])C(OC(=O)C([H])=C([H])C([H])([H])[H])(C([H])([H])[H])C2([H])C([H])(O[H])C3([H])C([H])(O[H])C4([H])OC(=O)C35C([H])(O[H])C4([H])C([H])(O[H])C3([H])C([O-])=C([H])C(=O)C3(C([H])([H])[H])C5([H])C12C([H])([H])[H]

$$$$
66:3:2
     RDKit          3D

 72 77  0  0  1  0  0  0  0  0999 V2000
    0.0348   -9.6158    6.7154 C   0  0  0  0  0  0  0  0  0  0  0  0
    1.0441   -9.0657    6.0205 C   0  0  0  0  0  0  0  0  0  0  0  0
    2.4990   -9.1223    6.4657 C   0  0  1  0  0  0  0  0  0  0  0  0
    2.7423   -9.9102    7.6204 O   0  0  0  0  0  0  0  0  0  0  0  0
    3.3122   -9.4492    5.1844 C   0  0  1  0  0  0  0  0  0  0  0  0
    3.3987  -11.0155    5.2167 C   0  0  0  0  0  0  0  0  0  0  0  0
    2.3373   -9.0484    4.0255 C   0  0  2  0  0  0  0  0  0  0  0  0
    3.0384   -8.5019    2.7407 C   0  0  1  0  0  0  0  0  0  0  0  0
    3.1476   -7.1071    2.6303 O   0  0  0  0  0  0  0  0  0  0  0  0
    4.4125   -9.2187    2.5334 C   0  0  1  0  0  0  0  0  0  0  0  0
    5.0627   -9.2673    1.1400 C   0  0  1  0  0  0  0  0  0  0  0  0
    4.5943   -8.3314    0.2054 O   0  0  0  0  0  0  0  0  0  0  0  0
    6.5635   -9.3719    1.3908 C   0  0  2  0  0  0  0  0  0  0  0  0
    6.6064  -10.6889    2.0559 O   0  0  0  0  0  0  0  0  0  0  0  0
    5.9811  -10.8150    3.3201 C   0  0  0  0  0  0  0  0  0  0  0  0
    5.9740  -11.8217    4.0151 O   0  0  0  0  0  0  0  0  0  0  0  0
    5.4833   -9.3977    3.7294 C   0  0  1  0  0  0  0  0  0  0  0  0
    6.9695   -8.8181    3.7279 C   0  0  1  0  0  0  0  0  0  0  0  0
    8.1169   -9.5715    4.1578 O   0  0  0  0  0  0  0  0  0  0  0  0
    7.1368   -8.2544    2.3633 C   0  0  2  0  0  0  0  0  0  0  0  0
    6.4749   -6.8257    2.5243 C   0  0  1  0  0  0  0  0  0  0  0  0
    5.7615   -6.3720    1.4053 O   0  0  0  0  0  0  0  0  0  0  0  0
    5.8911   -6.3014    3.9533 C   0  0  1  0  0  0  0  0  0  0  0  0
    5.2250   -4.9430    3.8103 C   0  0  0  0  0  0  0  0  0  0  0  0
    5.7977   -4.1269    3.0555 O   0  0  0  0  0  0  0  0  0  0  0  0
    4.1140   -4.8978    4.6013 C   0  0  0  0  0  0  0  0  0  0  0  0
    3.9287   -6.1018    5.3719 C   0  0  0  0  0  0  0  0  0  0  0  0
    3.1180   -6.1402    6.2802 O   0  0  0  0  0  0  0  0  0  0  0  0
    5.0637   -7.1555    5.1112 C   0  0  2  0  0  0  0  0  0  0  0  0
    5.8329   -7.0143    6.4638 C   0  0  0  0  0  0  0  0  0  0  0  0
    4.7726   -8.8084    5.0112 C   0  0  1  0  0  0  0  0  0  0  0  0
    0.9636   -8.5194    4.5824 C   0  0  1  0  0  0  0  0  0  0  0  0
   -0.2045   -9.1479    3.7460 C   0  0  0  0  0  0  0  0  0  0  0  0
    0.9292   -7.0665    4.6138 O   0  0  0  0  0  0  0  0  0  0  0  0
   -0.1758   -6.3441    5.0113 C   0  0  0  0  0  0  0  0  0  0  0  0
   -1.3384   -6.7065    4.8355 O   0  0  0  0  0  0  0  0  0  0  0  0
    0.1836   -5.0496    5.6506 C   0  0  0  0  0  0  0  0  0  0  0  0
   -0.6171   -4.3271    6.4729 C   0  0  0  0  0  0  0  0  0  0  0  0
   -2.0267   -4.6355    7.0016 C   0  0  0  0  0  0  0  0  0  0  0  0
   -0.9653   -9.6400    6.3178 H   0  0  0  0  0  0  0  0  0  0  0  0
    0.2017  -10.0969    7.6740 H   0  0  0  0  0  0  0  0  0  0  0  0
    2.7362   -8.1764    6.8700 H   0  0  0  0  0  0  0  0  0  0  0  0
    2.3636  -10.7799    7.5056 H   0  0  0  0  0  0  0  0  0  0  0  0
    3.5427  -11.4691    4.2371 H   0  0  0  0  0  0  0  0  0  0  0  0
    2.4766  -11.4714    5.5780 H   0  0  0  0  0  0  0  0  0  0  0  0
    4.1994  -11.3640    5.8731 H   0  0  0  0  0  0  0  0  0  0  0  0
    2.0189  -10.0154    3.6367 H   0  0  0  0  0  0  0  0  0  0  0  0
    2.3972   -8.7603    1.8962 H   0  0  0  0  0  0  0  0  0  0  0  0
    3.7376   -6.7875    3.3028 H   0  0  0  0  0  0  0  0  0  0  0  0
    3.9346  -10.2004    2.4717 H   0  0  0  0  0  0  0  0  0  0  0  0
    4.7936  -10.2095    0.6541 H   0  0  0  0  0  0  0  0  0  0  0  0
    3.7238   -8.5613    0.0014 H   0  0  0  0  0  0  0  0  0  0  0  0
    7.1136   -9.4116    0.4489 H   0  0  0  0  0  0  0  0  0  0  0  0
    7.1855   -8.1244    4.5095 H   0  0  0  0  0  0  0  0  0  0  0  0
    8.2473  -10.2999    3.5600 H   0  0  0  0  0  0  0  0  0  0  0  0
    8.1958   -8.1151    2.1473 H   0  0  0  0  0  0  0  0  0  0  0  0
    7.3438   -6.1765    2.4137 H   0  0  0  0  0  0  0  0  0  0  0  0
    4.9641   -6.8936    1.3100 H   0  0  0  0  0  0  0  0  0  0  0  0
    6.8261   -6.0572    4.4711 H   0  0  0  0  0  0  0  0  0  0  0  0
    3.4710   -4.0501    4.7223 H   0  0  0  0  0  0  0  0  0  0  0  0
    6.8084   -7.4957    6.4707 H   0  0  0  0  0  0  0  0  0  0  0  0
    5.2673   -7.4467    7.2886 H   0  0  0  0  0  0  0  0  0  0  0  0
    6.0076   -5.9731    6.7307 H   0  0  0  0  0  0  0  0  0  0  0  0
    5.3373   -9.2619    5.8267 H   0  0  0  0  0  0  0  0  0  0  0  0
   -0.1735  -10.2431    3.7847 H   0  0  0  0  0  0  0  0  0  0  0  0
   -0.1168   -8.8359    2.7037 H   0  0  0  0  0  0  0  0  0  0  0  0
   -1.2158   -8.9210    4.0731 H   0  0  0  0  0  0  0  0  0  0  0  0
    1.1750   -4.6620    5.4388 H   0  0  0  0  0  0  0  0  0  0  0  0
   -0.2188   -3.3931    6.8459 H   0  0  0  0  0  0  0  0  0  0  0  0
   -1.9969   -4.9070    8.0615 H   0  0  0  0  0  0  0  0  0  0  0  0
   -2.5619   -5.4352    6.4940 H   0  0  0  0  0  0  0  0  0  0  0  0
   -2.6634   -3.7534    6.9022 H   0  0  0  0  0  0  0  0  0  0  0  0
  1  2  2  0
  1 40  1  0
  1 41  1  0
  2 32  1  0
  2  3  1  0
  3  4  1  0
  3  5  1  0
  3 42  1  1
  4 43  1  0
  5 31  1  0
  5  6  1  6
  5  7  1  0
  6 44  1  0
  6 45  1  0
  6 46  1  0
  7  8  1  0
  7 32  1  0
  7 47  1  6
  8  9  1  0
  8 10  1  0
  8 48  1  6
  9 49  1  0
 10 17  1  0
 10 11  1  0
 10 50  1  6
 11 12  1  0
 11 13  1  0
 11 51  1  6
 12 52  1  0
 13 20  1  0
 13 14  1  0
 13 53  1  6
 14 15  1  0
 15 16  2  0
 17 15  1  1
 17 31  1  0
 17 18  1  0
 18 19  1  0
 18 20  1  0
 18 54  1  1
 19 55  1  0
 20 21  1  0
 20 56  1  6
 21 22  1  0
 21 57  1  6
 21 23  1  0
 22 58  1  0
 23 59  1  1
 23 29  1  0
 23 24  1  0
 24 26  2  0
 24 25  1  0
 26 27  1  0
 26 60  1  0
 27 29  1  0
 27 28  2  0
 29 30  1  1
 29 31  1  0
 30 61  1  0
 30 62  1  0
 30 63  1  0
 31 64  1  1
 32 33  1  0
 32 34  1  1
 33 65  1  0
 33 66  1  0
 33 67  1  0
 34 35  1  0
 35 36  2  0
 35 37  1  0
 37 38  2  3
 37 68  1  0
 38 39  1  0
 38 69  1  0
 39 70  1  0
 39 71  1  0
 39 72  1  0
M  CHG  1  25  -1
M  END
>  <i_m_ct_stereo_status>  (226) 
1

>  <s_m_source_file>  (226) 
/var/tmp/pbs.5076255.sched01/tmpavn81tjv/78c0r2i372.sdf

>  <i_m_source_file_index>  (226) 
9

>  <i_lp_mmshare_version>  (226) 
48012

>  <i_f3d_flags>  (226) 
0

>  <s_epik_input>  (226) 
W0NIM11cW0NIXT1bQ0hdXEMoPU8pT1tDQF0xKFtDSDNdKUMoPVtDSDJdKVtDQEBIXShbT0hdKVtDQEBdKFtDSDNdKShbQ0BASF0xW0NAQEhdKFtPSF0pW0NAQEhdMltDQEBdMzQ1KVtDQEBIXTVbQ0BAXTYoW0NIM10pW0NASF0oQyg9TylbQ0gyXUM2PU8pW0NASF0oW09IXSlbQ0BASF0oW0NAQEhdNFtPSF0pW0NASF0oW0NAQEhdMltPSF0pT0MzPU8=

>  <s_epik_cmdline>  (226) 
J2VwaWtfcHl0aG9uJywgJy1waHQnLCAnMi4wJywgJy1waCcsICc3LjAnLCAnLXRuJywgJzgnLCAnLW1hJywgJzIwMCcsICctaW1hZScsICc8aW5maWxlLm1hZT4nLCAnLW9tYWUnLCAnPG91dGZpbGUubWFlPic=

>  <r_lp_tautomer_probability>  (226) 
1

>  <r_epik_Ionization_Penalty>  (226) 
2.06701

>  <r_epik_Ionization_Penalty_Charging>  (226) 
0.00654894

>  <r_epik_Ionization_Penalty_Neutral>  (226) 
2.06046

>  <r_epik_State_Penalty>  (226) 
0.683795

>  <r_epik_Charging_Adjusted_Penalty>  (226) 
0.690344

>  <i_epik_Tot_Q>  (226) 
-1

>  <i_epik_Tot_abs_Q>  (226) 
1

>  <s_epik_Chemistry_Notes>  (226) 
This compound has an ester and may undergo hydrolysis at high or low pH.

>  <s_lp_Force_Field>  (226) 
OPLS3e

>  <r_lp_Energy>  (226) 
197.31

>  <b_lp_Chiralities_Consistent>  (226) 
1

>  <s_lp_Variant>  (226) 
66:0-4

>  <s_i_glide_gridfile>  (226) 
pfpi4k_grid

>  <i_i_glide_lignum>  (226) 
9

>  <i_i_glide_rotatable_bonds>  (226) 
8

>  <r_i_docking_score>  (226) 
-2.74154

>  <r_i_glide_ligand_efficiency>  (226) 
-0.0702959

>  <r_i_glide_ligand_efficiency_sa>  (226) 
-0.238388

>  <r_i_glide_ligand_efficiency_ln>  (226) 
-0.587864

>  <r_i_glide_gscore>  (226) 
-2.74154

>  <r_i_glide_lipo>  (226) 
-0.224344

>  <r_i_glide_hbond>  (226) 
-0.16

>  <r_i_glide_metal>  (226) 
-0

>  <r_i_glide_rewards>  (226) 
-0.5

>  <r_i_glide_evdw>  (226) 
-27.0843

>  <r_i_glide_ecoul>  (226) 
-4.49509

>  <r_i_glide_erotb>  (226) 
0.208697

>  <r_i_glide_esite>  (226) 
-0.0374132

>  <r_i_glide_emodel>  (226) 
-42.4795

>  <r_i_glide_energy>  (226) 
-31.5794

>  <r_i_glide_einternal>  (226) 
4.6873

>  <r_i_glide_intrahb_reward>  (226) 
-0.5

>  <i_i_glide_confnum>  (226) 
4

>  <i_i_glide_posenum>  (226) 
22

>  <r_i_glide_eff_state_penalty>  (226) 
0

>  <ligand_id>  (226) 
66

>  <original_smiles>  (226) 
C=C1C(O)C2(C)C(C(O)C3C(O)C4OC(=O)C35C(O)C4C(O)C3C(=O)CC(=O)C3(C)C25)C1(C)OC(=O)C=CC

>  <smiles>  (226) 
[H]OC1([H])C(=C([H])[H])C(OC(=O)C([H])=C([H])C([H])([H])[H])(C([H])([H])[H])C2([H])C([H])(O[H])C3([H])C([H])(O[H])C4([H])OC(=O)C35C([H])(O[H])C4([H])C([H])(O[H])C3([H])C([O-])=C([H])C(=O)C3(C([H])([H])[H])C5([H])C12C([H])([H])[H]

$$$$
66:4:0
     RDKit          3D

 73 78  0  0  1  0  0  0  0  0999 V2000
    0.7906  -11.7562    4.6738 C   0  0  0  0  0  0  0  0  0  0  0  0
    1.4857  -10.6044    4.6286 C   0  0  0  0  0  0  0  0  0  0  0  0
    2.8674  -10.4283    5.2299 C   0  0  1  0  0  0  0  0  0  0  0  0
    3.4149  -11.6354    5.7414 O   0  0  0  0  0  0  0  0  0  0  0  0
    3.6853   -9.7258    4.1099 C   0  0  1  0  0  0  0  0  0  0  0  0
    4.2960  -10.9242    3.3028 C   0  0  0  0  0  0  0  0  0  0  0  0
    2.5802   -9.0809    3.2067 C   0  0  2  0  0  0  0  0  0  0  0  0
    2.9897   -7.7332    2.5354 C   0  0  1  0  0  0  0  0  0  0  0  0
    2.6792   -6.5917    3.2603 O   0  0  0  0  0  0  0  0  0  0  0  0
    4.4974   -7.7486    2.1726 C   0  0  1  0  0  0  0  0  0  0  0  0
    5.0262   -6.7868    1.0903 C   0  0  1  0  0  0  0  0  0  0  0  0
    4.2408   -5.6504    0.8253 O   0  0  0  0  0  0  0  0  0  0  0  0
    6.4866   -6.5208    1.4831 C   0  0  2  0  0  0  0  0  0  0  0  0
    7.0152   -7.8957    1.3127 O   0  0  0  0  0  0  0  0  0  0  0  0
    6.5306   -8.9039    2.2066 C   0  0  0  0  0  0  0  0  0  0  0  0
    6.8811  -10.0793    2.2156 O   0  0  0  0  0  0  0  0  0  0  0  0
    5.6273   -8.2018    3.2360 C   0  0  1  0  0  0  0  0  0  0  0  0
    6.8374   -7.3118    3.7714 C   0  0  1  0  0  0  0  0  0  0  0  0
    8.1957   -7.7477    3.8607 O   0  0  0  0  0  0  0  0  0  0  0  0
    6.7025   -6.0364    3.0019 C   0  0  2  0  0  0  0  0  0  0  0  0
    5.6319   -5.2585    3.8708 C   0  0  1  0  0  0  0  0  0  0  0  0
    4.6989   -4.4936    3.1352 O   0  0  0  0  0  0  0  0  0  0  0  0
    5.0906   -5.8968    5.2568 C   0  0  1  0  0  0  0  0  0  0  0  0
    4.1081   -4.9385    5.9233 C   0  0  0  0  0  0  0  0  0  0  0  0
    4.3560   -3.7860    6.2553 O   0  0  0  0  0  0  0  0  0  0  0  0
    2.7782   -5.6010    6.0921 C   0  0  0  0  0  0  0  0  0  0  0  0
    3.1595   -7.0808    6.1668 C   0  0  0  0  0  0  0  0  0  0  0  0
    2.5233   -7.8141    6.9073 O   0  0  0  0  0  0  0  0  0  0  0  0
    4.5793   -7.4175    5.5712 C   0  0  2  0  0  0  0  0  0  0  0  0
    5.3206   -7.8640    6.8699 C   0  0  0  0  0  0  0  0  0  0  0  0
    4.8496   -8.6905    4.5148 C   0  0  1  0  0  0  0  0  0  0  0  0
    1.1593   -9.3799    3.8004 C   0  0  1  0  0  0  0  0  0  0  0  0
    0.1057   -9.7119    2.7019 C   0  0  0  0  0  0  0  0  0  0  0  0
    0.6444   -8.4413    4.7303 O   0  0  0  0  0  0  0  0  0  0  0  0
    0.0062   -7.2680    4.4749 C   0  0  0  0  0  0  0  0  0  0  0  0
   -0.2909   -6.8270    3.3462 O   0  0  0  0  0  0  0  0  0  0  0  0
   -0.2730   -6.5657    5.7232 C   0  0  0  0  0  0  0  0  0  0  0  0
   -0.5661   -5.2524    5.7686 C   0  0  0  0  0  0  0  0  0  0  0  0
   -0.8494   -4.4705    7.0290 C   0  0  0  0  0  0  0  0  0  0  0  0
   -0.1635  -11.8567    4.1913 H   0  0  0  0  0  0  0  0  0  0  0  0
    1.1658  -12.5978    5.2293 H   0  0  0  0  0  0  0  0  0  0  0  0
    2.7402   -9.8435    6.1034 H   0  0  0  0  0  0  0  0  0  0  0  0
    2.8065  -11.9635    6.4093 H   0  0  0  0  0  0  0  0  0  0  0  0
    4.5213  -10.6878    2.2666 H   0  0  0  0  0  0  0  0  0  0  0  0
    3.6022  -11.7677    3.2165 H   0  0  0  0  0  0  0  0  0  0  0  0
    5.1990  -11.3176    3.7761 H   0  0  0  0  0  0  0  0  0  0  0  0
    2.5551   -9.7244    2.3282 H   0  0  0  0  0  0  0  0  0  0  0  0
    2.3939   -7.6292    1.6179 H   0  0  0  0  0  0  0  0  0  0  0  0
    2.7446   -5.8376    2.6518 H   0  0  0  0  0  0  0  0  0  0  0  0
    4.3511   -8.6152    1.5258 H   0  0  0  0  0  0  0  0  0  0  0  0
    5.0136   -7.3218    0.1380 H   0  0  0  0  0  0  0  0  0  0  0  0
    4.4758   -5.3256   -0.0455 H   0  0  0  0  0  0  0  0  0  0  0  0
    6.9575   -5.8249    0.7857 H   0  0  0  0  0  0  0  0  0  0  0  0
    6.8933   -7.2128    4.8383 H   0  0  0  0  0  0  0  0  0  0  0  0
    8.5455   -7.8637    2.9698 H   0  0  0  0  0  0  0  0  0  0  0  0
    7.6420   -5.4819    3.0601 H   0  0  0  0  0  0  0  0  0  0  0  0
    6.2173   -4.4356    4.2782 H   0  0  0  0  0  0  0  0  0  0  0  0
    4.3524   -5.0387    2.4088 H   0  0  0  0  0  0  0  0  0  0  0  0
    5.9470   -5.7616    5.9214 H   0  0  0  0  0  0  0  0  0  0  0  0
    2.0857   -5.3532    5.2854 H   0  0  0  0  0  0  0  0  0  0  0  0
    6.3969   -7.9418    6.7572 H   0  0  0  0  0  0  0  0  0  0  0  0
    4.9700   -8.8344    7.1963 H   0  0  0  0  0  0  0  0  0  0  0  0
    5.1506   -7.1727    7.6901 H   0  0  0  0  0  0  0  0  0  0  0  0
    5.5717   -9.3382    5.0063 H   0  0  0  0  0  0  0  0  0  0  0  0
    0.3724  -10.6002    2.1350 H   0  0  0  0  0  0  0  0  0  0  0  0
    0.0149   -8.9016    1.9866 H   0  0  0  0  0  0  0  0  0  0  0  0
   -0.8772   -9.8846    3.1394 H   0  0  0  0  0  0  0  0  0  0  0  0
   -0.2009   -7.1361    6.6446 H   0  0  0  0  0  0  0  0  0  0  0  0
   -0.5743   -4.7014    4.8382 H   0  0  0  0  0  0  0  0  0  0  0  0
   -1.8491   -4.0469    6.9909 H   0  0  0  0  0  0  0  0  0  0  0  0
   -0.1331   -3.6554    7.1270 H   0  0  0  0  0  0  0  0  0  0  0  0
   -0.7713   -5.0997    7.9182 H   0  0  0  0  0  0  0  0  0  0  0  0
    2.3215   -5.2862    7.0297 H   0  0  0  0  0  0  0  0  0  0  0  0
  1  2  2  0
  1 40  1  0
  1 41  1  0
  2 32  1  0
  2  3  1  0
  3  4  1  0
  3  5  1  0
  3 42  1  1
  4 43  1  0
  5 31  1  0
  5  6  1  6
  5  7  1  0
  6 44  1  0
  6 45  1  0
  6 46  1  0
  7  8  1  0
  7 32  1  0
  7 47  1  6
  8  9  1  0
  8 10  1  0
  8 48  1  6
  9 49  1  0
 10 17  1  0
 10 11  1  0
 10 50  1  6
 11 12  1  0
 11 13  1  0
 11 51  1  6
 12 52  1  0
 13 20  1  0
 13 14  1  0
 13 53  1  6
 14 15  1  0
 15 16  2  0
 17 15  1  6
 17 31  1  0
 17 18  1  0
 18 19  1  0
 18 20  1  0
 18 54  1  1
 19 55  1  0
 20 21  1  0
 20 56  1  6
 21 22  1  0
 21 57  1  1
 21 23  1  0
 22 58  1  0
 23 59  1  1
 23 29  1  0
 23 24  1  0
 24 26  1  0
 24 25  2  0
 26 27  1  0
 26 60  1  0
 26 73  1  0
 27 29  1  0
 27 28  2  0
 29 30  1  1
 29 31  1  0
 30 61  1  0
 30 62  1  0
 30 63  1  0
 31 64  1  1
 32 33  1  0
 32 34  1  1
 33 65  1  0
 33 66  1  0
 33 67  1  0
 34 35  1  0
 35 36  2  0
 35 37  1  0
 37 38  2  3
 37 68  1  0
 38 39  1  0
 38 69  1  0
 39 70  1  0
 39 71  1  0
 39 72  1  0
M  END
>  <i_m_ct_stereo_status>  (227) 
1

>  <s_m_source_file>  (227) 
/var/tmp/pbs.5076255.sched01/tmpavn81tjv/78c0r2i372.sdf

>  <i_m_source_file_index>  (227) 
10

>  <i_lp_mmshare_version>  (227) 
48012

>  <i_f3d_flags>  (227) 
0

>  <s_epik_input>  (227) 
W0NIM11cW0NIXT1bQ0hdXEMoPU8pT1tDQF0xKFtDSDNdKUMoPVtDSDJdKVtDQEBIXShbT0hdKVtDQEBdKFtDSDNdKShbQ0BASF0xW0NAQEhdKFtPSF0pW0NAQEhdMltDQEBdMzQ1KVtDQEBIXTVbQ0BAXTYoW0NIM10pW0NASF0oQyg9TylbQ0gyXUM2PU8pW0NASF0oW09IXSlbQ0BASF0oW0NAQEhdNFtPSF0pW0NASF0oW0NAQEhdMltPSF0pT0MzPU8=

>  <s_epik_cmdline>  (227) 
J2VwaWtfcHl0aG9uJywgJy1waHQnLCAnMi4wJywgJy1waCcsICc3LjAnLCAnLXRuJywgJzgnLCAnLW1hJywgJzIwMCcsICctaW1hZScsICc8aW5maWxlLm1hZT4nLCAnLW9tYWUnLCAnPG91dGZpbGUubWFlPic=

>  <r_lp_tautomer_probability>  (227) 
0.0032736

>  <r_epik_Ionization_Penalty>  (227) 
0.0037579

>  <r_epik_Ionization_Penalty_Charging>  (227) 
0

>  <r_epik_Ionization_Penalty_Neutral>  (227) 
0.0037579

>  <r_epik_State_Penalty>  (227) 
0.780914

>  <r_epik_Charging_Adjusted_Penalty>  (227) 
0.780914

>  <i_epik_Tot_Q>  (227) 
0

>  <i_epik_Tot_abs_Q>  (227) 
0

>  <s_epik_Chemistry_Notes>  (227) 
This compound has an ester and may undergo hydrolysis at high or low pH.

>  <s_lp_Force_Field>  (227) 
OPLS3e

>  <r_lp_Energy>  (227) 
194.531

>  <b_lp_Chiralities_Consistent>  (227) 
1

>  <s_lp_Variant>  (227) 
66:0-5

>  <s_i_glide_gridfile>  (227) 
pfpi4k_grid

>  <i_i_glide_lignum>  (227) 
10

>  <i_i_glide_rotatable_bonds>  (227) 
8

>  <r_i_docking_score>  (227) 
-3.65796

>  <r_i_glide_ligand_efficiency>  (227) 
-0.0937937

>  <r_i_glide_ligand_efficiency_sa>  (227) 
-0.318074

>  <r_i_glide_ligand_efficiency_ln>  (227) 
-0.784369

>  <r_i_glide_gscore>  (227) 
-3.65796

>  <r_i_glide_lipo>  (227) 
-0.222817

>  <r_i_glide_hbond>  (227) 
-0.239279

>  <r_i_glide_metal>  (227) 
-0

>  <r_i_glide_rewards>  (227) 
-1.06992

>  <r_i_glide_evdw>  (227) 
-29.8579

>  <r_i_glide_ecoul>  (227) 
-5.42163

>  <r_i_glide_erotb>  (227) 
0.207987

>  <r_i_glide_esite>  (227) 
-0.0277837

>  <r_i_glide_emodel>  (227) 
-54.5841

>  <r_i_glide_energy>  (227) 
-35.2795

>  <r_i_glide_einternal>  (227) 
2.57813

>  <r_i_glide_intrahb_reward>  (227) 
-1

>  <i_i_glide_confnum>  (227) 
4

>  <i_i_glide_posenum>  (227) 
27

>  <r_i_glide_eff_state_penalty>  (227) 
0

>  <ligand_id>  (227) 
66

>  <original_smiles>  (227) 
C=C1C(O)C2(C)C(C(O)C3C(O)C4OC(=O)C35C(O)C4C(O)C3C(=O)CC(=O)C3(C)C25)C1(C)OC(=O)C=CC

>  <smiles>  (227) 
[H]OC1([H])C(=C([H])[H])C(OC(=O)C([H])=C([H])C([H])([H])[H])(C([H])([H])[H])C2([H])C([H])(O[H])C3([H])C([H])(O[H])C4([H])OC(=O)C35C([H])(O[H])C4([H])C([H])(O[H])C3([H])C(=O)C([H])([H])C(=O)C3(C([H])([H])[H])C5([H])C12C([H])([H])[H]

$$$$
66:4:1
     RDKit          3D

 73 78  0  0  1  0  0  0  0  0999 V2000
    0.7745  -11.7924    4.6676 C   0  0  0  0  0  0  0  0  0  0  0  0
    1.4725  -10.6420    4.5979 C   0  0  0  0  0  0  0  0  0  0  0  0
    2.8428  -10.4310    5.2171 C   0  0  1  0  0  0  0  0  0  0  0  0
    3.4133  -11.6026    5.7756 O   0  0  0  0  0  0  0  0  0  0  0  0
    3.6634   -9.7336    4.0912 C   0  0  1  0  0  0  0  0  0  0  0  0
    4.2942  -10.9409    3.3098 C   0  0  0  0  0  0  0  0  0  0  0  0
    2.5605   -9.0990    3.1733 C   0  0  2  0  0  0  0  0  0  0  0  0
    2.9583   -7.7612    2.4681 C   0  0  1  0  0  0  0  0  0  0  0  0
    2.6503   -6.5808    3.1455 O   0  0  0  0  0  0  0  0  0  0  0  0
    4.4737   -7.7638    2.1309 C   0  0  1  0  0  0  0  0  0  0  0  0
    5.0126   -6.8260    1.0306 C   0  0  1  0  0  0  0  0  0  0  0  0
    4.2280   -5.7105    0.6767 O   0  0  0  0  0  0  0  0  0  0  0  0
    6.4650   -6.5431    1.4478 C   0  0  2  0  0  0  0  0  0  0  0  0
    7.0134   -7.9107    1.3097 O   0  0  0  0  0  0  0  0  0  0  0  0
    6.5313   -8.9077    2.2024 C   0  0  0  0  0  0  0  0  0  0  0  0
    6.8900  -10.0797    2.2302 O   0  0  0  0  0  0  0  0  0  0  0  0
    5.5928   -8.2024    3.2197 C   0  0  1  0  0  0  0  0  0  0  0  0
    6.7894   -7.2882    3.7515 C   0  0  1  0  0  0  0  0  0  0  0  0
    8.1558   -7.7220    3.8745 O   0  0  0  0  0  0  0  0  0  0  0  0
    6.6475   -6.0312    2.9605 C   0  0  2  0  0  0  0  0  0  0  0  0
    5.5421   -5.2577    3.7975 C   0  0  1  0  0  0  0  0  0  0  0  0
    4.5835   -4.5367    3.0514 O   0  0  0  0  0  0  0  0  0  0  0  0
    5.0049   -5.8675    5.1918 C   0  0  1  0  0  0  0  0  0  0  0  0
    4.0106   -4.9186    5.8418 C   0  0  0  0  0  0  0  0  0  0  0  0
    4.2510   -3.7561    6.1634 O   0  0  0  0  0  0  0  0  0  0  0  0
    2.6846   -5.5817    6.0217 C   0  0  0  0  0  0  0  0  0  0  0  0
    3.0898   -7.0488    6.1132 C   0  0  0  0  0  0  0  0  0  0  0  0
    2.4422   -7.7802    6.8536 O   0  0  0  0  0  0  0  0  0  0  0  0
    4.5043   -7.3894    5.5313 C   0  0  2  0  0  0  0  0  0  0  0  0
    5.2381   -7.8060    6.8439 C   0  0  0  0  0  0  0  0  0  0  0  0
    4.8008   -8.6791    4.4975 C   0  0  1  0  0  0  0  0  0  0  0  0
    1.1346   -9.4220    3.7468 C   0  0  1  0  0  0  0  0  0  0  0  0
    0.0981   -9.7733    2.6527 C   0  0  0  0  0  0  0  0  0  0  0  0
    0.6054   -8.4684    4.6755 O   0  0  0  0  0  0  0  0  0  0  0  0
   -0.0168   -7.2984    4.3863 C   0  0  0  0  0  0  0  0  0  0  0  0
   -0.3038   -6.8784    3.2576 O   0  0  0  0  0  0  0  0  0  0  0  0
   -0.2830   -6.5600    5.6320 C   0  0  0  0  0  0  0  0  0  0  0  0
   -0.5623   -5.2461    5.6421 C   0  0  0  0  0  0  0  0  0  0  0  0
   -0.8296   -4.4262    6.8853 C   0  0  0  0  0  0  0  0  0  0  0  0
   -0.1729  -11.9263    4.1684 H   0  0  0  0  0  0  0  0  0  0  0  0
    1.1519  -12.6262    5.2430 H   0  0  0  0  0  0  0  0  0  0  0  0
    2.6844   -9.8130    6.0679 H   0  0  0  0  0  0  0  0  0  0  0  0
    2.7894  -11.9423    6.4264 H   0  0  0  0  0  0  0  0  0  0  0  0
    4.5317  -10.7155    2.2719 H   0  0  0  0  0  0  0  0  0  0  0  0
    3.6182  -11.7947    3.2297 H   0  0  0  0  0  0  0  0  0  0  0  0
    5.2016  -11.3120    3.7938 H   0  0  0  0  0  0  0  0  0  0  0  0
    2.5490   -9.7587    2.3046 H   0  0  0  0  0  0  0  0  0  0  0  0
    2.3871   -7.7002    1.5375 H   0  0  0  0  0  0  0  0  0  0  0  0
    3.0446   -6.6431    3.9994 H   0  0  0  0  0  0  0  0  0  0  0  0
    4.3512   -8.6508    1.5038 H   0  0  0  0  0  0  0  0  0  0  0  0
    5.0226   -7.3868    0.0936 H   0  0  0  0  0  0  0  0  0  0  0  0
    4.4995   -5.4090   -0.1792 H   0  0  0  0  0  0  0  0  0  0  0  0
    6.9422   -5.8546    0.7457 H   0  0  0  0  0  0  0  0  0  0  0  0
    6.8263   -7.1687    4.8163 H   0  0  0  0  0  0  0  0  0  0  0  0
    8.5201   -7.8536    3.0094 H   0  0  0  0  0  0  0  0  0  0  0  0
    7.5781   -5.4671    3.0223 H   0  0  0  0  0  0  0  0  0  0  0  0
    6.1176   -4.4111    4.1736 H   0  0  0  0  0  0  0  0  0  0  0  0
    4.0650   -5.1419    2.5253 H   0  0  0  0  0  0  0  0  0  0  0  0
    5.8540   -5.7122    5.8570 H   0  0  0  0  0  0  0  0  0  0  0  0
    2.0291   -5.3657    5.1790 H   0  0  0  0  0  0  0  0  0  0  0  0
    6.3182   -7.8709    6.7413 H   0  0  0  0  0  0  0  0  0  0  0  0
    4.9022   -8.7834    7.1868 H   0  0  0  0  0  0  0  0  0  0  0  0
    5.0570   -7.1130    7.6639 H   0  0  0  0  0  0  0  0  0  0  0  0
    5.5245   -9.3139    5.0144 H   0  0  0  0  0  0  0  0  0  0  0  0
    0.3754  -10.6676    2.0928 H   0  0  0  0  0  0  0  0  0  0  0  0
    0.0108   -8.9728    1.9239 H   0  0  0  0  0  0  0  0  0  0  0  0
   -0.8937   -9.9487    3.0735 H   0  0  0  0  0  0  0  0  0  0  0  0
   -0.2084   -7.1058    6.5627 H   0  0  0  0  0  0  0  0  0  0  0  0
   -0.5755   -4.7105    4.7052 H   0  0  0  0  0  0  0  0  0  0  0  0
   -1.8259   -3.9914    6.8485 H   0  0  0  0  0  0  0  0  0  0  0  0
   -0.1049   -3.6148    6.9569 H   0  0  0  0  0  0  0  0  0  0  0  0
   -0.7476   -5.0339    7.7865 H   0  0  0  0  0  0  0  0  0  0  0  0
    2.2027   -5.2448    6.9353 H   0  0  0  0  0  0  0  0  0  0  0  0
  1  2  2  0
  1 40  1  0
  1 41  1  0
  2 32  1  0
  2  3  1  0
  3  4  1  0
  3  5  1  0
  3 42  1  1
  4 43  1  0
  5 31  1  0
  5  6  1  6
  5  7  1  0
  6 44  1  0
  6 45  1  0
  6 46  1  0
  7  8  1  0
  7 32  1  0
  7 47  1  6
  8  9  1  0
  8 10  1  0
  8 48  1  6
  9 49  1  0
 10 17  1  0
 10 11  1  0
 10 50  1  6
 11 12  1  0
 11 13  1  0
 11 51  1  6
 12 52  1  0
 13 20  1  0
 13 14  1  0
 13 53  1  6
 14 15  1  0
 15 16  2  0
 17 15  1  6
 17 31  1  0
 17 18  1  0
 18 19  1  0
 18 20  1  0
 18 54  1  1
 19 55  1  0
 20 21  1  0
 20 56  1  6
 21 22  1  0
 21 57  1  1
 21 23  1  0
 22 58  1  0
 23 59  1  1
 23 29  1  0
 23 24  1  0
 24 26  1  0
 24 25  2  0
 26 27  1  0
 26 60  1  0
 26 73  1  0
 27 29  1  0
 27 28  2  0
 29 30  1  1
 29 31  1  0
 30 61  1  0
 30 62  1  0
 30 63  1  0
 31 64  1  1
 32 33  1  0
 32 34  1  1
 33 65  1  0
 33 66  1  0
 33 67  1  0
 34 35  1  0
 35 36  2  0
 35 37  1  0
 37 38  2  3
 37 68  1  0
 38 39  1  0
 38 69  1  0
 39 70  1  0
 39 71  1  0
 39 72  1  0
M  END
>  <i_m_ct_stereo_status>  (228) 
1

>  <s_m_source_file>  (228) 
/var/tmp/pbs.5076255.sched01/tmpavn81tjv/78c0r2i372.sdf

>  <i_m_source_file_index>  (228) 
10

>  <i_lp_mmshare_version>  (228) 
48012

>  <i_f3d_flags>  (228) 
0

>  <s_epik_input>  (228) 
W0NIM11cW0NIXT1bQ0hdXEMoPU8pT1tDQF0xKFtDSDNdKUMoPVtDSDJdKVtDQEBIXShbT0hdKVtDQEBdKFtDSDNdKShbQ0BASF0xW0NAQEhdKFtPSF0pW0NAQEhdMltDQEBdMzQ1KVtDQEBIXTVbQ0BAXTYoW0NIM10pW0NASF0oQyg9TylbQ0gyXUM2PU8pW0NASF0oW09IXSlbQ0BASF0oW0NAQEhdNFtPSF0pW0NASF0oW0NAQEhdMltPSF0pT0MzPU8=

>  <s_epik_cmdline>  (228) 
J2VwaWtfcHl0aG9uJywgJy1waHQnLCAnMi4wJywgJy1waCcsICc3LjAnLCAnLXRuJywgJzgnLCAnLW1hJywgJzIwMCcsICctaW1hZScsICc8aW5maWxlLm1hZT4nLCAnLW9tYWUnLCAnPG91dGZpbGUubWFlPic=

>  <r_lp_tautomer_probability>  (228) 
0.0032736

>  <r_epik_Ionization_Penalty>  (228) 
0.0037579

>  <r_epik_Ionization_Penalty_Charging>  (228) 
0

>  <r_epik_Ionization_Penalty_Neutral>  (228) 
0.0037579

>  <r_epik_State_Penalty>  (228) 
0.780914

>  <r_epik_Charging_Adjusted_Penalty>  (228) 
0.780914

>  <i_epik_Tot_Q>  (228) 
0

>  <i_epik_Tot_abs_Q>  (228) 
0

>  <s_epik_Chemistry_Notes>  (228) 
This compound has an ester and may undergo hydrolysis at high or low pH.

>  <s_lp_Force_Field>  (228) 
OPLS3e

>  <r_lp_Energy>  (228) 
194.531

>  <b_lp_Chiralities_Consistent>  (228) 
1

>  <s_lp_Variant>  (228) 
66:0-5

>  <s_i_glide_gridfile>  (228) 
pfpi4k_grid

>  <i_i_glide_lignum>  (228) 
10

>  <i_i_glide_rotatable_bonds>  (228) 
8

>  <r_i_docking_score>  (228) 
-3.65064

>  <r_i_glide_ligand_efficiency>  (228) 
-0.0936061

>  <r_i_glide_ligand_efficiency_sa>  (228) 
-0.317438

>  <r_i_glide_ligand_efficiency_ln>  (228) 
-0.7828

>  <r_i_glide_gscore>  (228) 
-3.65064

>  <r_i_glide_lipo>  (228) 
-0.21864

>  <r_i_glide_hbond>  (228) 
-0.244745

>  <r_i_glide_metal>  (228) 
-0

>  <r_i_glide_rewards>  (228) 
-1.07018

>  <r_i_glide_evdw>  (228) 
-29.6806

>  <r_i_glide_ecoul>  (228) 
-5.41276

>  <r_i_glide_erotb>  (228) 
0.207987

>  <r_i_glide_esite>  (228) 
-0.0291102

>  <r_i_glide_emodel>  (228) 
-54.7098

>  <r_i_glide_energy>  (228) 
-35.0934

>  <r_i_glide_einternal>  (228) 
2.34428

>  <r_i_glide_intrahb_reward>  (228) 
-1

>  <i_i_glide_confnum>  (228) 
4

>  <i_i_glide_posenum>  (228) 
4

>  <r_i_glide_eff_state_penalty>  (228) 
0

>  <ligand_id>  (228) 
66

>  <original_smiles>  (228) 
C=C1C(O)C2(C)C(C(O)C3C(O)C4OC(=O)C35C(O)C4C(O)C3C(=O)CC(=O)C3(C)C25)C1(C)OC(=O)C=CC

>  <smiles>  (228) 
[H]OC1([H])C(=C([H])[H])C(OC(=O)C([H])=C([H])C([H])([H])[H])(C([H])([H])[H])C2([H])C([H])(O[H])C3([H])C([H])(O[H])C4([H])OC(=O)C35C([H])(O[H])C4([H])C([H])(O[H])C3([H])C(=O)C([H])([H])C(=O)C3(C([H])([H])[H])C5([H])C12C([H])([H])[H]

$$$$
66:4:2
     RDKit          3D

 73 78  0  0  1  0  0  0  0  0999 V2000
    4.6690   -1.3183    5.3873 C   0  0  0  0  0  0  0  0  0  0  0  0
    4.3539   -2.4903    4.7988 C   0  0  0  0  0  0  0  0  0  0  0  0
    4.7104   -3.8609    5.3456 C   0  0  1  0  0  0  0  0  0  0  0  0
    5.2954   -3.8343    6.6326 O   0  0  0  0  0  0  0  0  0  0  0  0
    3.3955   -4.6824    5.2292 C   0  0  1  0  0  0  0  0  0  0  0  0
    2.6808   -4.4074    6.6017 C   0  0  0  0  0  0  0  0  0  0  0  0
    2.5840   -3.9150    4.1321 C   0  0  2  0  0  0  0  0  0  0  0  0
    1.6767   -4.8143    3.2325 C   0  0  1  0  0  0  0  0  0  0  0  0
    2.2609   -5.1834    2.0201 O   0  0  0  0  0  0  0  0  0  0  0  0
    1.1305   -6.0503    4.0325 C   0  0  1  0  0  0  0  0  0  0  0  0
   -0.1713   -6.7820    3.6110 C   0  0  1  0  0  0  0  0  0  0  0  0
   -0.5656   -6.6765    2.2637 O   0  0  0  0  0  0  0  0  0  0  0  0
   -0.0103   -8.2037    4.1670 C   0  0  2  0  0  0  0  0  0  0  0  0
   -0.0581   -7.8627    5.6025 O   0  0  0  0  0  0  0  0  0  0  0  0
    1.0129   -7.1194    6.1472 C   0  0  0  0  0  0  0  0  0  0  0  0
    1.1238   -6.7888    7.3218 O   0  0  0  0  0  0  0  0  0  0  0  0
    2.0648   -6.9308    5.0212 C   0  0  1  0  0  0  0  0  0  0  0  0
    2.3005   -8.5069    4.9183 C   0  0  1  0  0  0  0  0  0  0  0  0
    2.2384   -9.4134    6.0239 O   0  0  0  0  0  0  0  0  0  0  0  0
    1.3811   -8.9269    3.8241 C   0  0  2  0  0  0  0  0  0  0  0  0
    2.2495   -8.6173    2.5424 C   0  0  1  0  0  0  0  0  0  0  0  0
    1.5006   -8.0737    1.4777 O   0  0  0  0  0  0  0  0  0  0  0  0
    3.7657   -8.0630    2.6994 C   0  0  1  0  0  0  0  0  0  0  0  0
    4.4133   -7.8563    1.3333 C   0  0  0  0  0  0  0  0  0  0  0  0
    4.5608   -8.7279    0.4799 O   0  0  0  0  0  0  0  0  0  0  0  0
    4.8823   -6.4416    1.1719 C   0  0  0  0  0  0  0  0  0  0  0  0
    5.1066   -6.0278    2.6254 C   0  0  0  0  0  0  0  0  0  0  0  0
    6.0297   -5.2676    2.8851 O   0  0  0  0  0  0  0  0  0  0  0  0
    4.3763   -6.9118    3.6955 C   0  0  2  0  0  0  0  0  0  0  0  0
    5.6080   -7.5439    4.4199 C   0  0  0  0  0  0  0  0  0  0  0  0
    3.4908   -6.2647    4.9623 C   0  0  1  0  0  0  0  0  0  0  0  0
    3.4028   -2.6839    3.6060 C   0  0  1  0  0  0  0  0  0  0  0  0
    2.4655   -1.4728    3.3349 C   0  0  0  0  0  0  0  0  0  0  0  0
    4.1439   -2.9782    2.4055 O   0  0  0  0  0  0  0  0  0  0  0  0
    5.1472   -2.1527    1.9352 C   0  0  0  0  0  0  0  0  0  0  0  0
    5.3864   -1.0141    2.3686 O   0  0  0  0  0  0  0  0  0  0  0  0
    5.9441   -2.7951    0.8773 C   0  0  0  0  0  0  0  0  0  0  0  0
    6.9602   -2.1650    0.2507 C   0  0  0  0  0  0  0  0  0  0  0  0
    7.8012   -2.8074   -0.8308 C   0  0  0  0  0  0  0  0  0  0  0  0
    4.3233   -0.3876    4.9715 H   0  0  0  0  0  0  0  0  0  0  0  0
    5.2796   -1.2719    6.2780 H   0  0  0  0  0  0  0  0  0  0  0  0
    5.4947   -4.2098    4.7229 H   0  0  0  0  0  0  0  0  0  0  0  0
    5.6490   -4.6946    6.8166 H   0  0  0  0  0  0  0  0  0  0  0  0
    1.5992   -4.5238    6.5600 H   0  0  0  0  0  0  0  0  0  0  0  0
    2.8120   -3.3744    6.9346 H   0  0  0  0  0  0  0  0  0  0  0  0
    3.0676   -5.0466    7.4019 H   0  0  0  0  0  0  0  0  0  0  0  0
    1.8144   -3.3982    4.7042 H   0  0  0  0  0  0  0  0  0  0  0  0
    0.8270   -4.1974    2.9267 H   0  0  0  0  0  0  0  0  0  0  0  0
    2.9154   -5.8409    2.2210 H   0  0  0  0  0  0  0  0  0  0  0  0
    0.6458   -5.3578    4.7197 H   0  0  0  0  0  0  0  0  0  0  0  0
   -1.0113   -6.3303    4.1430 H   0  0  0  0  0  0  0  0  0  0  0  0
    0.0719   -7.1995    1.7737 H   0  0  0  0  0  0  0  0  0  0  0  0
   -0.8521   -8.8367    3.8727 H   0  0  0  0  0  0  0  0  0  0  0  0
    3.3247   -8.8152    4.8206 H   0  0  0  0  0  0  0  0  0  0  0  0
    2.9859   -9.2475    6.5829 H   0  0  0  0  0  0  0  0  0  0  0  0
    1.2452  -10.0058    3.8816 H   0  0  0  0  0  0  0  0  0  0  0  0
    2.4440   -9.6153    2.1310 H   0  0  0  0  0  0  0  0  0  0  0  0
    1.0685   -8.7988    1.0275 H   0  0  0  0  0  0  0  0  0  0  0  0
    4.2927   -8.9647    3.0096 H   0  0  0  0  0  0  0  0  0  0  0  0
    4.1853   -5.8148    0.6115 H   0  0  0  0  0  0  0  0  0  0  0  0
    5.3754   -8.3730    5.0812 H   0  0  0  0  0  0  0  0  0  0  0  0
    6.1190   -6.8086    5.0331 H   0  0  0  0  0  0  0  0  0  0  0  0
    6.3469   -7.9205    3.7210 H   0  0  0  0  0  0  0  0  0  0  0  0
    3.9622   -6.6263    5.8799 H   0  0  0  0  0  0  0  0  0  0  0  0
    1.9597   -1.1388    4.2426 H   0  0  0  0  0  0  0  0  0  0  0  0
    1.7157   -1.7605    2.6021 H   0  0  0  0  0  0  0  0  0  0  0  0
    2.9759   -0.5971    2.9321 H   0  0  0  0  0  0  0  0  0  0  0  0
    5.7053   -3.8163    0.6102 H   0  0  0  0  0  0  0  0  0  0  0  0
    7.2118   -1.1474    0.5170 H   0  0  0  0  0  0  0  0  0  0  0  0
    8.8553   -2.8199   -0.5579 H   0  0  0  0  0  0  0  0  0  0  0  0
    7.7035   -2.2720   -1.7718 H   0  0  0  0  0  0  0  0  0  0  0  0
    7.4875   -3.8364   -0.9993 H   0  0  0  0  0  0  0  0  0  0  0  0
    5.8202   -6.4366    0.6326 H   0  0  0  0  0  0  0  0  0  0  0  0
  1  2  2  0
  1 40  1  0
  1 41  1  0
  2 32  1  0
  2  3  1  0
  3  4  1  0
  3  5  1  0
  3 42  1  6
  4 43  1  0
  5 31  1  0
  5  6  1  1
  5  7  1  0
  6 44  1  0
  6 45  1  0
  6 46  1  0
  7  8  1  0
  7 32  1  0
  7 47  1  1
  8  9  1  0
  8 10  1  0
  8 48  1  6
  9 49  1  0
 10 17  1  0
 10 11  1  0
 10 50  1  1
 11 12  1  0
 11 13  1  0
 11 51  1  1
 12 52  1  0
 13 20  1  0
 13 14  1  0
 13 53  1  6
 14 15  1  0
 15 16  2  0
 17 15  1  1
 17 31  1  0
 17 18  1  0
 18 19  1  0
 18 20  1  0
 18 54  1  6
 19 55  1  0
 20 21  1  0
 20 56  1  1
 21 22  1  0
 21 57  1  6
 21 23  1  0
 22 58  1  0
 23 59  1  1
 23 29  1  0
 23 24  1  0
 24 26  1  0
 24 25  2  0
 26 27  1  0
 26 60  1  0
 26 73  1  0
 27 29  1  0
 27 28  2  0
 29 30  1  1
 29 31  1  0
 30 61  1  0
 30 62  1  0
 30 63  1  0
 31 64  1  1
 32 33  1  0
 32 34  1  6
 33 65  1  0
 33 66  1  0
 33 67  1  0
 34 35  1  0
 35 36  2  0
 35 37  1  0
 37 38  2  3
 37 68  1  0
 38 39  1  0
 38 69  1  0
 39 70  1  0
 39 71  1  0
 39 72  1  0
M  END
>  <i_m_ct_stereo_status>  (229) 
1

>  <s_m_source_file>  (229) 
/var/tmp/pbs.5076255.sched01/tmpavn81tjv/78c0r2i372.sdf

>  <i_m_source_file_index>  (229) 
10

>  <i_lp_mmshare_version>  (229) 
48012

>  <i_f3d_flags>  (229) 
0

>  <s_epik_input>  (229) 
W0NIM11cW0NIXT1bQ0hdXEMoPU8pT1tDQF0xKFtDSDNdKUMoPVtDSDJdKVtDQEBIXShbT0hdKVtDQEBdKFtDSDNdKShbQ0BASF0xW0NAQEhdKFtPSF0pW0NAQEhdMltDQEBdMzQ1KVtDQEBIXTVbQ0BAXTYoW0NIM10pW0NASF0oQyg9TylbQ0gyXUM2PU8pW0NASF0oW09IXSlbQ0BASF0oW0NAQEhdNFtPSF0pW0NASF0oW0NAQEhdMltPSF0pT0MzPU8=

>  <s_epik_cmdline>  (229) 
J2VwaWtfcHl0aG9uJywgJy1waHQnLCAnMi4wJywgJy1waCcsICc3LjAnLCAnLXRuJywgJzgnLCAnLW1hJywgJzIwMCcsICctaW1hZScsICc8aW5maWxlLm1hZT4nLCAnLW9tYWUnLCAnPG91dGZpbGUubWFlPic=

>  <r_lp_tautomer_probability>  (229) 
0.0032736

>  <r_epik_Ionization_Penalty>  (229) 
0.0037579

>  <r_epik_Ionization_Penalty_Charging>  (229) 
0

>  <r_epik_Ionization_Penalty_Neutral>  (229) 
0.0037579

>  <r_epik_State_Penalty>  (229) 
0.780914

>  <r_epik_Charging_Adjusted_Penalty>  (229) 
0.780914

>  <i_epik_Tot_Q>  (229) 
0

>  <i_epik_Tot_abs_Q>  (229) 
0

>  <s_epik_Chemistry_Notes>  (229) 
This compound has an ester and may undergo hydrolysis at high or low pH.

>  <s_lp_Force_Field>  (229) 
OPLS3e

>  <r_lp_Energy>  (229) 
194.531

>  <b_lp_Chiralities_Consistent>  (229) 
1

>  <s_lp_Variant>  (229) 
66:0-5

>  <s_i_glide_gridfile>  (229) 
pfpi4k_grid

>  <i_i_glide_lignum>  (229) 
10

>  <i_i_glide_rotatable_bonds>  (229) 
8

>  <r_i_docking_score>  (229) 
-3.57896

>  <r_i_glide_ligand_efficiency>  (229) 
-0.0917683

>  <r_i_glide_ligand_efficiency_sa>  (229) 
-0.311206

>  <r_i_glide_ligand_efficiency_ln>  (229) 
-0.767432

>  <r_i_glide_gscore>  (229) 
-3.57896

>  <r_i_glide_lipo>  (229) 
-0.241533

>  <r_i_glide_hbond>  (229) 
0

>  <r_i_glide_metal>  (229) 
-0

>  <r_i_glide_rewards>  (229) 
-0.633228

>  <r_i_glide_evdw>  (229) 
-30.658

>  <r_i_glide_ecoul>  (229) 
-9.15647

>  <r_i_glide_erotb>  (229) 
0.207987

>  <r_i_glide_esite>  (229) 
-0.00581956

>  <r_i_glide_emodel>  (229) 
-53.9043

>  <r_i_glide_energy>  (229) 
-39.8145

>  <r_i_glide_einternal>  (229) 
2.19502

>  <r_i_glide_intrahb_reward>  (229) 
-0.5

>  <i_i_glide_confnum>  (229) 
4

>  <i_i_glide_posenum>  (229) 
19

>  <r_i_glide_eff_state_penalty>  (229) 
0

>  <ligand_id>  (229) 
66

>  <original_smiles>  (229) 
C=C1C(O)C2(C)C(C(O)C3C(O)C4OC(=O)C35C(O)C4C(O)C3C(=O)CC(=O)C3(C)C25)C1(C)OC(=O)C=CC

>  <smiles>  (229) 
[H]OC1([H])C(=C([H])[H])C(OC(=O)C([H])=C([H])C([H])([H])[H])(C([H])([H])[H])C2([H])C([H])(O[H])C3([H])C([H])(O[H])C4([H])OC(=O)C35C([H])(O[H])C4([H])C([H])(O[H])C3([H])C(=O)C([H])([H])C(=O)C3(C([H])([H])[H])C5([H])C12C([H])([H])[H]

$$$$
66:5:0
     RDKit          3D

 73 78  0  0  1  0  0  0  0  0999 V2000
    2.0920   -4.3810    9.1103 C   0  0  0  0  0  0  0  0  0  0  0  0
    2.0581   -4.9025    7.8674 C   0  0  0  0  0  0  0  0  0  0  0  0
    3.2690   -5.4370    7.1203 C   0  0  1  0  0  0  0  0  0  0  0  0
    4.4769   -5.4359    7.8716 O   0  0  0  0  0  0  0  0  0  0  0  0
    2.8096   -6.8087    6.5432 C   0  0  1  0  0  0  0  0  0  0  0  0
    3.1858   -7.8234    7.6818 C   0  0  0  0  0  0  0  0  0  0  0  0
    1.2483   -6.6840    6.5139 C   0  0  2  0  0  0  0  0  0  0  0  0
    0.5449   -7.4403    5.3378 C   0  0  1  0  0  0  0  0  0  0  0  0
    0.2556   -6.6909    4.1857 O   0  0  0  0  0  0  0  0  0  0  0  0
    1.3290   -8.7462    4.9789 C   0  0  1  0  0  0  0  0  0  0  0  0
    0.6208   -9.9141    4.2537 C   0  0  1  0  0  0  0  0  0  0  0  0
   -0.5874   -9.6068    3.5875 O   0  0  0  0  0  0  0  0  0  0  0  0
    1.7342  -10.6341    3.4785 C   0  0  2  0  0  0  0  0  0  0  0  0
    2.5285  -11.1278    4.6230 O   0  0  0  0  0  0  0  0  0  0  0  0
    3.1684  -10.1621    5.4545 C   0  0  0  0  0  0  0  0  0  0  0  0
    3.8943  -10.4043    6.4159 O   0  0  0  0  0  0  0  0  0  0  0  0
    2.9375   -8.7673    4.8033 C   0  0  1  0  0  0  0  0  0  0  0  0
    3.7221   -9.2093    3.4859 C   0  0  1  0  0  0  0  0  0  0  0  0
    4.8702  -10.0695    3.4683 O   0  0  0  0  0  0  0  0  0  0  0  0
    2.6436   -9.6764    2.5652 C   0  0  2  0  0  0  0  0  0  0  0  0
    2.1654   -8.3045    1.9324 C   0  0  1  0  0  0  0  0  0  0  0  0
    0.7761   -8.1616    1.7235 O   0  0  0  0  0  0  0  0  0  0  0  0
    2.9239   -6.9301    2.3049 C   0  0  1  0  0  0  0  0  0  0  0  0
    2.2942   -5.7618    1.5631 C   0  0  0  0  0  0  0  0  0  0  0  0
    2.1548   -5.6938    0.3434 O   0  0  0  0  0  0  0  0  0  0  0  0
    1.8119   -4.7095    2.5070 C   0  0  0  0  0  0  0  0  0  0  0  0
    2.6906   -4.9533    3.7170 C   0  0  0  0  0  0  0  0  0  0  0  0
    3.0108   -3.9723    4.3825 O   0  0  0  0  0  0  0  0  0  0  0  0
    3.3923   -6.3534    3.7675 C   0  0  2  0  0  0  0  0  0  0  0  0
    4.8826   -5.9179    3.5984 C   0  0  0  0  0  0  0  0  0  0  0  0
    3.4222   -7.3081    5.1426 C   0  0  1  0  0  0  0  0  0  0  0  0
    0.7961   -5.2880    7.0818 C   0  0  1  0  0  0  0  0  0  0  0  0
   -0.4712   -5.4441    7.9789 C   0  0  0  0  0  0  0  0  0  0  0  0
    0.5346   -4.3382    6.0323 O   0  0  0  0  0  0  0  0  0  0  0  0
    0.1950   -3.0234    6.2511 C   0  0  0  0  0  0  0  0  0  0  0  0
   -0.0366   -2.5389    7.3672 O   0  0  0  0  0  0  0  0  0  0  0  0
    0.1547   -2.2552    4.9893 C   0  0  0  0  0  0  0  0  0  0  0  0
   -0.3234   -0.9982    4.8125 C   0  0  0  0  0  0  0  0  0  0  0  0
   -0.9427   -0.0312    5.8155 C   0  0  0  0  0  0  0  0  0  0  0  0
    1.1902   -4.0982    9.6239 H   0  0  0  0  0  0  0  0  0  0  0  0
    3.0236   -4.2291    9.6377 H   0  0  0  0  0  0  0  0  0  0  0  0
    3.4734   -4.7167    6.3664 H   0  0  0  0  0  0  0  0  0  0  0  0
    4.4450   -6.1291    8.5149 H   0  0  0  0  0  0  0  0  0  0  0  0
    2.5895   -8.7334    7.6693 H   0  0  0  0  0  0  0  0  0  0  0  0
    3.0089   -7.4190    8.6806 H   0  0  0  0  0  0  0  0  0  0  0  0
    4.2384   -8.1163    7.6391 H   0  0  0  0  0  0  0  0  0  0  0  0
    0.9367   -7.3255    7.3358 H   0  0  0  0  0  0  0  0  0  0  0  0
   -0.4464   -7.7351    5.6889 H   0  0  0  0  0  0  0  0  0  0  0  0
    0.0491   -7.3185    3.4961 H   0  0  0  0  0  0  0  0  0  0  0  0
    1.1768   -9.1272    5.9925 H   0  0  0  0  0  0  0  0  0  0  0  0
    0.2689  -10.6281    5.0020 H   0  0  0  0  0  0  0  0  0  0  0  0
   -1.2734  -10.1197    4.0173 H   0  0  0  0  0  0  0  0  0  0  0  0
    1.3367  -11.4712    2.9030 H   0  0  0  0  0  0  0  0  0  0  0  0
    4.3916   -8.4736    3.0907 H   0  0  0  0  0  0  0  0  0  0  0  0
    4.5797  -10.9679    3.5650 H   0  0  0  0  0  0  0  0  0  0  0  0
    3.0872  -10.2837    1.7710 H   0  0  0  0  0  0  0  0  0  0  0  0
    2.4823   -8.4410    0.8966 H   0  0  0  0  0  0  0  0  0  0  0  0
    0.4797   -8.8729    1.1586 H   0  0  0  0  0  0  0  0  0  0  0  0
    3.8553   -7.0307    1.7490 H   0  0  0  0  0  0  0  0  0  0  0  0
    0.7496   -4.8149    2.7298 H   0  0  0  0  0  0  0  0  0  0  0  0
    5.5589   -6.7414    3.3817 H   0  0  0  0  0  0  0  0  0  0  0  0
    5.2591   -5.4414    4.5024 H   0  0  0  0  0  0  0  0  0  0  0  0
    5.0196   -5.1997    2.7896 H   0  0  0  0  0  0  0  0  0  0  0  0
    4.4766   -7.4519    5.3833 H   0  0  0  0  0  0  0  0  0  0  0  0
   -0.2871   -6.1116    8.8234 H   0  0  0  0  0  0  0  0  0  0  0  0
   -1.2832   -5.8567    7.3810 H   0  0  0  0  0  0  0  0  0  0  0  0
   -0.8580   -4.5176    8.4053 H   0  0  0  0  0  0  0  0  0  0  0  0
    0.5538   -2.7539    4.1152 H   0  0  0  0  0  0  0  0  0  0  0  0
   -0.2783   -0.5987    3.8084 H   0  0  0  0  0  0  0  0  0  0  0  0
   -2.0132    0.0558    5.6355 H   0  0  0  0  0  0  0  0  0  0  0  0
   -0.5096    0.9606    5.6718 H   0  0  0  0  0  0  0  0  0  0  0  0
   -0.7883   -0.2860    6.8614 H   0  0  0  0  0  0  0  0  0  0  0  0
    1.9729   -3.7197    2.0859 H   0  0  0  0  0  0  0  0  0  0  0  0
  1  2  2  0
  1 40  1  0
  1 41  1  0
  2 32  1  0
  2  3  1  0
  3  4  1  0
  3  5  1  0
  3 42  1  6
  4 43  1  0
  5 31  1  0
  5  6  1  1
  5  7  1  0
  6 44  1  0
  6 45  1  0
  6 46  1  0
  7  8  1  0
  7 32  1  0
  7 47  1  1
  8  9  1  0
  8 10  1  0
  8 48  1  1
  9 49  1  0
 10 17  1  0
 10 11  1  0
 10 50  1  1
 11 12  1  0
 11 13  1  0
 11 51  1  1
 12 52  1  0
 13 20  1  0
 13 14  1  0
 13 53  1  6
 14 15  1  0
 15 16  2  0
 17 15  1  1
 17 31  1  0
 17 18  1  0
 18 19  1  0
 18 20  1  0
 18 54  1  6
 19 55  1  0
 20 21  1  0
 20 56  1  6
 21 22  1  0
 21 57  1  6
 21 23  1  0
 22 58  1  0
 23 59  1  6
 23 29  1  0
 23 24  1  0
 24 26  1  0
 24 25  2  0
 26 27  1  0
 26 60  1  0
 26 73  1  0
 27 29  1  0
 27 28  2  0
 29 30  1  6
 29 31  1  0
 30 61  1  0
 30 62  1  0
 30 63  1  0
 31 64  1  1
 32 33  1  0
 32 34  1  6
 33 65  1  0
 33 66  1  0
 33 67  1  0
 34 35  1  0
 35 36  2  0
 35 37  1  0
 37 38  2  3
 37 68  1  0
 38 39  1  0
 38 69  1  0
 39 70  1  0
 39 71  1  0
 39 72  1  0
M  END
>  <i_m_ct_stereo_status>  (230) 
1

>  <s_m_source_file>  (230) 
/var/tmp/pbs.5076255.sched01/tmpavn81tjv/78c0r2i372.sdf

>  <i_m_source_file_index>  (230) 
11

>  <i_lp_mmshare_version>  (230) 
48012

>  <i_f3d_flags>  (230) 
0

>  <s_epik_input>  (230) 
W0NIM11cW0NIXT1bQ0hdXEMoPU8pT1tDQF0xKFtDSDNdKUMoPVtDSDJdKVtDQEBIXShbT0hdKVtDQEBdKFtDSDNdKShbQ0BASF0xW0NAQEhdKFtPSF0pW0NAQEhdMltDQEBdMzQ1KVtDQEBIXTVbQ0BAXTYoW0NIM10pW0NASF0oQyg9TylbQ0gyXUM2PU8pW0NASF0oW09IXSlbQ0BASF0oW0NAQEhdNFtPSF0pW0NASF0oW0NAQEhdMltPSF0pT0MzPU8=

>  <s_epik_cmdline>  (230) 
J2VwaWtfcHl0aG9uJywgJy1waHQnLCAnMi4wJywgJy1waCcsICc3LjAnLCAnLXRuJywgJzgnLCAnLW1hJywgJzIwMCcsICctaW1hZScsICc8aW5maWxlLm1hZT4nLCAnLW9tYWUnLCAnPG91dGZpbGUubWFlPic=

>  <r_lp_tautomer_probability>  (230) 
0.0032736

>  <r_epik_Ionization_Penalty>  (230) 
0.0037579

>  <r_epik_Ionization_Penalty_Charging>  (230) 
0

>  <r_epik_Ionization_Penalty_Neutral>  (230) 
0.0037579

>  <r_epik_State_Penalty>  (230) 
0.780914

>  <r_epik_Charging_Adjusted_Penalty>  (230) 
0.780914

>  <i_epik_Tot_Q>  (230) 
0

>  <i_epik_Tot_abs_Q>  (230) 
0

>  <s_epik_Chemistry_Notes>  (230) 
This compound has an ester and may undergo hydrolysis at high or low pH.

>  <s_lp_Force_Field>  (230) 
OPLS3e

>  <r_lp_Energy>  (230) 
196.949

>  <b_lp_Chiralities_Consistent>  (230) 
1

>  <s_lp_Variant>  (230) 
66:0-6

>  <s_i_glide_gridfile>  (230) 
pfpi4k_grid

>  <i_i_glide_lignum>  (230) 
11

>  <i_i_glide_rotatable_bonds>  (230) 
8

>  <r_i_docking_score>  (230) 
-3.30121

>  <r_i_glide_ligand_efficiency>  (230) 
-0.0846464

>  <r_i_glide_ligand_efficiency_sa>  (230) 
-0.287054

>  <r_i_glide_ligand_efficiency_ln>  (230) 
-0.707873

>  <r_i_glide_gscore>  (230) 
-3.30121

>  <r_i_glide_lipo>  (230) 
-0.154862

>  <r_i_glide_hbond>  (230) 
0

>  <r_i_glide_metal>  (230) 
-0

>  <r_i_glide_rewards>  (230) 
-0.5

>  <r_i_glide_evdw>  (230) 
-27.837

>  <r_i_glide_ecoul>  (230) 
-9.27577

>  <r_i_glide_erotb>  (230) 
0.207987

>  <r_i_glide_esite>  (230) 
-0.0711215

>  <r_i_glide_emodel>  (230) 
-49.6406

>  <r_i_glide_energy>  (230) 
-37.1127

>  <r_i_glide_einternal>  (230) 
3.72361

>  <r_i_glide_intrahb_reward>  (230) 
-0.5

>  <i_i_glide_confnum>  (230) 
5

>  <i_i_glide_posenum>  (230) 
2

>  <r_i_glide_eff_state_penalty>  (230) 
0

>  <ligand_id>  (230) 
66

>  <original_smiles>  (230) 
C=C1C(O)C2(C)C(C(O)C3C(O)C4OC(=O)C35C(O)C4C(O)C3C(=O)CC(=O)C3(C)C25)C1(C)OC(=O)C=CC

>  <smiles>  (230) 
[H]OC1([H])C(=C([H])[H])C(OC(=O)C([H])=C([H])C([H])([H])[H])(C([H])([H])[H])C2([H])C([H])(O[H])C3([H])C([H])(O[H])C4([H])OC(=O)C35C([H])(O[H])C4([H])C([H])(O[H])C3([H])C(=O)C([H])([H])C(=O)C3(C([H])([H])[H])C5([H])C12C([H])([H])[H]

$$$$
66:5:1
     RDKit          3D

 73 78  0  0  1  0  0  0  0  0999 V2000
    5.3154   -9.5427    3.2039 C   0  0  0  0  0  0  0  0  0  0  0  0
    4.8500   -8.2945    3.0682 C   0  0  0  0  0  0  0  0  0  0  0  0
    5.6047   -7.0400    3.4715 C   0  0  1  0  0  0  0  0  0  0  0  0
    6.9412   -7.2806    3.9106 O   0  0  0  0  0  0  0  0  0  0  0  0
    5.4200   -6.0798    2.2644 C   0  0  1  0  0  0  0  0  0  0  0  0
    6.6532   -6.4171    1.3551 C   0  0  0  0  0  0  0  0  0  0  0  0
    4.1258   -6.6140    1.5503 C   0  0  2  0  0  0  0  0  0  0  0  0
    3.2418   -5.5292    0.8526 C   0  0  1  0  0  0  0  0  0  0  0  0
    2.2503   -4.9950    1.6299 O   0  0  0  0  0  0  0  0  0  0  0  0
    4.1418   -4.4041    0.2704 C   0  0  1  0  0  0  0  0  0  0  0  0
    3.6047   -3.4788   -0.8519 C   0  0  1  0  0  0  0  0  0  0  0  0
    2.2029   -3.4550   -1.0466 O   0  0  0  0  0  0  0  0  0  0  0  0
    4.3248   -2.1424   -0.6359 C   0  0  2  0  0  0  0  0  0  0  0  0
    5.7070   -2.5894   -0.9124 O   0  0  0  0  0  0  0  0  0  0  0  0
    6.3051   -3.5043    0.0075 C   0  0  0  0  0  0  0  0  0  0  0  0
    7.4603   -3.9227   -0.0329 O   0  0  0  0  0  0  0  0  0  0  0  0
    5.2910   -3.7031    1.1745 C   0  0  1  0  0  0  0  0  0  0  0  0
    5.3824   -2.1591    1.5670 C   0  0  1  0  0  0  0  0  0  0  0  0
    6.5739   -1.3684    1.4054 O   0  0  0  0  0  0  0  0  0  0  0  0
    4.2257   -1.5413    0.8576 C   0  0  2  0  0  0  0  0  0  0  0  0
    3.0511   -1.7934    1.8908 C   0  0  1  0  0  0  0  0  0  0  0  0
    1.8170   -2.1212    1.3040 O   0  0  0  0  0  0  0  0  0  0  0  0
    3.3511   -2.5218    3.3069 C   0  0  1  0  0  0  0  0  0  0  0  0
    2.0709   -2.6809    4.1110 C   0  0  0  0  0  0  0  0  0  0  0  0
    1.3536   -1.7367    4.4530 O   0  0  0  0  0  0  0  0  0  0  0  0
    1.7953   -4.1130    4.4635 C   0  0  0  0  0  0  0  0  0  0  0  0
    3.2033   -4.6852    4.4300 C   0  0  0  0  0  0  0  0  0  0  0  0
    3.4712   -5.5820    5.2305 O   0  0  0  0  0  0  0  0  0  0  0  0
    4.2647   -3.8413    3.6442 C   0  0  2  0  0  0  0  0  0  0  0  0
    5.1947   -3.4268    4.8282 C   0  0  0  0  0  0  0  0  0  0  0  0
    5.3343   -4.5053    2.5383 C   0  0  1  0  0  0  0  0  0  0  0  0
    3.5820   -7.8751    2.3308 C   0  0  1  0  0  0  0  0  0  0  0  0
    3.0891   -9.0218    1.4024 C   0  0  0  0  0  0  0  0  0  0  0  0
    2.6041   -7.6441    3.3539 O   0  0  0  0  0  0  0  0  0  0  0  0
    1.2833   -7.5668    3.1554 C   0  0  0  0  0  0  0  0  0  0  0  0
    0.7716   -7.1870    2.0922 O   0  0  0  0  0  0  0  0  0  0  0  0
    0.5583   -8.0222    4.3681 C   0  0  0  0  0  0  0  0  0  0  0  0
   -0.7778   -8.1915    4.4822 C   0  0  0  0  0  0  0  0  0  0  0  0
   -1.8540   -7.9153    3.4458 C   0  0  0  0  0  0  0  0  0  0  0  0
    4.7830  -10.4064    2.8288 H   0  0  0  0  0  0  0  0  0  0  0  0
    6.2680   -9.7301    3.6866 H   0  0  0  0  0  0  0  0  0  0  0  0
    5.1225   -6.7010    4.3630 H   0  0  0  0  0  0  0  0  0  0  0  0
    7.4760   -7.5423    3.1719 H   0  0  0  0  0  0  0  0  0  0  0  0
    6.4945   -6.1803    0.3068 H   0  0  0  0  0  0  0  0  0  0  0  0
    6.8821   -7.4889    1.3399 H   0  0  0  0  0  0  0  0  0  0  0  0
    7.5617   -5.9070    1.6832 H   0  0  0  0  0  0  0  0  0  0  0  0
    4.5298   -7.1214    0.6750 H   0  0  0  0  0  0  0  0  0  0  0  0
    2.7357   -6.0141    0.0095 H   0  0  0  0  0  0  0  0  0  0  0  0
    2.6959   -4.5333    2.3283 H   0  0  0  0  0  0  0  0  0  0  0  0
    4.7073   -5.0964   -0.3771 H   0  0  0  0  0  0  0  0  0  0  0  0
    3.9597   -3.8757   -1.8058 H   0  0  0  0  0  0  0  0  0  0  0  0
    1.9077   -2.5425   -1.1231 H   0  0  0  0  0  0  0  0  0  0  0  0
    3.9823   -1.4074   -1.3715 H   0  0  0  0  0  0  0  0  0  0  0  0
    5.4651   -1.9647    2.6168 H   0  0  0  0  0  0  0  0  0  0  0  0
    6.4578   -0.5536    1.8672 H   0  0  0  0  0  0  0  0  0  0  0  0
    4.3799   -0.4592    0.7895 H   0  0  0  0  0  0  0  0  0  0  0  0
    2.8241   -0.7779    2.2224 H   0  0  0  0  0  0  0  0  0  0  0  0
    1.5763   -1.4702    0.6416 H   0  0  0  0  0  0  0  0  0  0  0  0
    3.8346   -1.7259    3.8714 H   0  0  0  0  0  0  0  0  0  0  0  0
    1.1004   -4.6027    3.7756 H   0  0  0  0  0  0  0  0  0  0  0  0
    5.8715   -2.6202    4.5742 H   0  0  0  0  0  0  0  0  0  0  0  0
    5.8138   -4.2565    5.1795 H   0  0  0  0  0  0  0  0  0  0  0  0
    4.6433   -3.0631    5.6998 H   0  0  0  0  0  0  0  0  0  0  0  0
    6.3351   -4.2939    2.9037 H   0  0  0  0  0  0  0  0  0  0  0  0
    3.8684   -9.3884    0.7328 H   0  0  0  0  0  0  0  0  0  0  0  0
    2.2440   -8.6760    0.8171 H   0  0  0  0  0  0  0  0  0  0  0  0
    2.7162   -9.8772    1.9687 H   0  0  0  0  0  0  0  0  0  0  0  0
    1.1669   -8.2520    5.2501 H   0  0  0  0  0  0  0  0  0  0  0  0
   -1.1650   -8.5670    5.4244 H   0  0  0  0  0  0  0  0  0  0  0  0
   -2.4572   -7.0624    3.7534 H   0  0  0  0  0  0  0  0  0  0  0  0
   -2.5084   -8.7812    3.3878 H   0  0  0  0  0  0  0  0  0  0  0  0
   -1.5192   -7.7354    2.4231 H   0  0  0  0  0  0  0  0  0  0  0  0
    1.3754   -4.1704    5.4623 H   0  0  0  0  0  0  0  0  0  0  0  0
  1  2  2  0
  1 40  1  0
  1 41  1  0
  2 32  1  0
  2  3  1  0
  3  4  1  0
  3  5  1  0
  3 42  1  1
  4 43  1  0
  5 31  1  0
  5  6  1  6
  5  7  1  0
  6 44  1  0
  6 45  1  0
  6 46  1  0
  7  8  1  0
  7 32  1  0
  7 47  1  6
  8  9  1  0
  8 10  1  0
  8 48  1  6
  9 49  1  0
 10 17  1  0
 10 11  1  0
 10 50  1  6
 11 12  1  0
 11 13  1  0
 11 51  1  6
 12 52  1  0
 13 20  1  0
 13 14  1  0
 13 53  1  6
 14 15  1  0
 15 16  2  0
 17 15  1  6
 17 31  1  0
 17 18  1  0
 18 19  1  0
 18 20  1  0
 18 54  1  1
 19 55  1  0
 20 21  1  0
 20 56  1  6
 21 22  1  0
 21 57  1  1
 21 23  1  0
 22 58  1  0
 23 59  1  1
 23 29  1  0
 23 24  1  0
 24 26  1  0
 24 25  2  0
 26 27  1  0
 26 60  1  0
 26 73  1  0
 27 29  1  0
 27 28  2  0
 29 30  1  1
 29 31  1  0
 30 61  1  0
 30 62  1  0
 30 63  1  0
 31 64  1  1
 32 33  1  0
 32 34  1  1
 33 65  1  0
 33 66  1  0
 33 67  1  0
 34 35  1  0
 35 36  2  0
 35 37  1  0
 37 38  2  3
 37 68  1  0
 38 39  1  0
 38 69  1  0
 39 70  1  0
 39 71  1  0
 39 72  1  0
M  END
>  <i_m_ct_stereo_status>  (231) 
1

>  <s_m_source_file>  (231) 
/var/tmp/pbs.5076255.sched01/tmpavn81tjv/78c0r2i372.sdf

>  <i_m_source_file_index>  (231) 
11

>  <i_lp_mmshare_version>  (231) 
48012

>  <i_f3d_flags>  (231) 
0

>  <s_epik_input>  (231) 
W0NIM11cW0NIXT1bQ0hdXEMoPU8pT1tDQF0xKFtDSDNdKUMoPVtDSDJdKVtDQEBIXShbT0hdKVtDQEBdKFtDSDNdKShbQ0BASF0xW0NAQEhdKFtPSF0pW0NAQEhdMltDQEBdMzQ1KVtDQEBIXTVbQ0BAXTYoW0NIM10pW0NASF0oQyg9TylbQ0gyXUM2PU8pW0NASF0oW09IXSlbQ0BASF0oW0NAQEhdNFtPSF0pW0NASF0oW0NAQEhdMltPSF0pT0MzPU8=

>  <s_epik_cmdline>  (231) 
J2VwaWtfcHl0aG9uJywgJy1waHQnLCAnMi4wJywgJy1waCcsICc3LjAnLCAnLXRuJywgJzgnLCAnLW1hJywgJzIwMCcsICctaW1hZScsICc8aW5maWxlLm1hZT4nLCAnLW9tYWUnLCAnPG91dGZpbGUubWFlPic=

>  <r_lp_tautomer_probability>  (231) 
0.0032736

>  <r_epik_Ionization_Penalty>  (231) 
0.0037579

>  <r_epik_Ionization_Penalty_Charging>  (231) 
0

>  <r_epik_Ionization_Penalty_Neutral>  (231) 
0.0037579

>  <r_epik_State_Penalty>  (231) 
0.780914

>  <r_epik_Charging_Adjusted_Penalty>  (231) 
0.780914

>  <i_epik_Tot_Q>  (231) 
0

>  <i_epik_Tot_abs_Q>  (231) 
0

>  <s_epik_Chemistry_Notes>  (231) 
This compound has an ester and may undergo hydrolysis at high or low pH.

>  <s_lp_Force_Field>  (231) 
OPLS3e

>  <r_lp_Energy>  (231) 
196.949

>  <b_lp_Chiralities_Consistent>  (231) 
1

>  <s_lp_Variant>  (231) 
66:0-6

>  <s_i_glide_gridfile>  (231) 
pfpi4k_grid

>  <i_i_glide_lignum>  (231) 
11

>  <i_i_glide_rotatable_bonds>  (231) 
8

>  <r_i_docking_score>  (231) 
-3.11247

>  <r_i_glide_ligand_efficiency>  (231) 
-0.0798069

>  <r_i_glide_ligand_efficiency_sa>  (231) 
-0.270642

>  <r_i_glide_ligand_efficiency_ln>  (231) 
-0.667401

>  <r_i_glide_gscore>  (231) 
-3.11247

>  <r_i_glide_lipo>  (231) 
-0.387668

>  <r_i_glide_hbond>  (231) 
0

>  <r_i_glide_metal>  (231) 
-0

>  <r_i_glide_rewards>  (231) 
-0.122719

>  <r_i_glide_evdw>  (231) 
-32.4146

>  <r_i_glide_ecoul>  (231) 
-7.39553

>  <r_i_glide_erotb>  (231) 
0.145591

>  <r_i_glide_esite>  (231) 
-0.0176094

>  <r_i_glide_emodel>  (231) 
-44.5856

>  <r_i_glide_energy>  (231) 
-39.8102

>  <r_i_glide_einternal>  (231) 
6.67703

>  <r_i_glide_intrahb_reward>  (231) 
-0

>  <i_i_glide_confnum>  (231) 
3

>  <i_i_glide_posenum>  (231) 
17

>  <r_i_glide_eff_state_penalty>  (231) 
0

>  <ligand_id>  (231) 
66

>  <original_smiles>  (231) 
C=C1C(O)C2(C)C(C(O)C3C(O)C4OC(=O)C35C(O)C4C(O)C3C(=O)CC(=O)C3(C)C25)C1(C)OC(=O)C=CC

>  <smiles>  (231) 
[H]OC1([H])C(=C([H])[H])C(OC(=O)C([H])=C([H])C([H])([H])[H])(C([H])([H])[H])C2([H])C([H])(O[H])C3([H])C([H])(O[H])C4([H])OC(=O)C35C([H])(O[H])C4([H])C([H])(O[H])C3([H])C(=O)C([H])([H])C(=O)C3(C([H])([H])[H])C5([H])C12C([H])([H])[H]

$$$$
66:5:2
     RDKit          3D

 73 78  0  0  1  0  0  0  0  0999 V2000
    0.8807  -11.0495    4.9369 C   0  0  0  0  0  0  0  0  0  0  0  0
    1.4785   -9.8448    4.8160 C   0  0  0  0  0  0  0  0  0  0  0  0
    2.9564   -9.5977    5.0627 C   0  0  1  0  0  0  0  0  0  0  0  0
    3.6964  -10.7901    5.2397 O   0  0  0  0  0  0  0  0  0  0  0  0
    3.3809   -8.6944    3.8574 C   0  0  1  0  0  0  0  0  0  0  0  0
    3.7948   -9.7436    2.7636 C   0  0  0  0  0  0  0  0  0  0  0  0
    2.0339   -8.0568    3.3699 C   0  0  2  0  0  0  0  0  0  0  0  0
    2.1327   -6.6021    2.8064 C   0  0  1  0  0  0  0  0  0  0  0  0
    1.9404   -5.5662    3.7183 O   0  0  0  0  0  0  0  0  0  0  0  0
    3.4826   -6.4284    2.0656 C   0  0  1  0  0  0  0  0  0  0  0  0
    3.6377   -5.3222    0.9915 C   0  0  1  0  0  0  0  0  0  0  0  0
    2.7389   -4.2428    1.0604 O   0  0  0  0  0  0  0  0  0  0  0  0
    5.1355   -4.9885    1.0102 C   0  0  2  0  0  0  0  0  0  0  0  0
    5.6604   -6.2885    0.5315 O   0  0  0  0  0  0  0  0  0  0  0  0
    5.5119   -7.4125    1.3967 C   0  0  0  0  0  0  0  0  0  0  0  0
    5.9169   -8.5498    1.1574 O   0  0  0  0  0  0  0  0  0  0  0  0
    4.8881   -6.9013    2.7226 C   0  0  1  0  0  0  0  0  0  0  0  0
    6.1549   -5.9655    3.0006 C   0  0  1  0  0  0  0  0  0  0  0  0
    7.5025   -6.2951    2.6345 O   0  0  0  0  0  0  0  0  0  0  0  0
    5.7297   -4.6366    2.4620 C   0  0  2  0  0  0  0  0  0  0  0  0
    4.8959   -4.0556    3.6858 C   0  0  1  0  0  0  0  0  0  0  0  0
    3.7165   -3.3452    3.3740 O   0  0  0  0  0  0  0  0  0  0  0  0
    4.8379   -4.8940    5.0806 C   0  0  1  0  0  0  0  0  0  0  0  0
    4.0609   -4.1075    6.1264 C   0  0  0  0  0  0  0  0  0  0  0  0
    4.3233   -2.9932    6.4870 O   0  0  0  0  0  0  0  0  0  0  0  0
    2.8564   -4.9038    6.5601 C   0  0  0  0  0  0  0  0  0  0  0  0
    3.3289   -6.3483    6.3323 C   0  0  0  0  0  0  0  0  0  0  0  0
    3.0168   -7.1992    7.1413 O   0  0  0  0  0  0  0  0  0  0  0  0
    4.5232   -6.4795    5.3159 C   0  0  2  0  0  0  0  0  0  0  0  0
    5.6417   -7.0004    6.2801 C   0  0  0  0  0  0  0  0  0  0  0  0
    4.5402   -7.6083    4.0877 C   0  0  1  0  0  0  0  0  0  0  0  0
    0.8646   -8.5553    4.2793 C   0  0  1  0  0  0  0  0  0  0  0  0
   -0.4345   -8.8620    3.4742 C   0  0  0  0  0  0  0  0  0  0  0  0
    0.6642   -7.7164    5.4252 O   0  0  0  0  0  0  0  0  0  0  0  0
   -0.1824   -6.6783    5.5530 C   0  0  0  0  0  0  0  0  0  0  0  0
   -0.9843   -6.3192    4.6990 O   0  0  0  0  0  0  0  0  0  0  0  0
    0.0343   -6.0302    6.8734 C   0  0  0  0  0  0  0  0  0  0  0  0
   -0.7764   -5.1017    7.4685 C   0  0  0  0  0  0  0  0  0  0  0  0
   -2.1776   -4.6006    7.1326 C   0  0  0  0  0  0  0  0  0  0  0  0
   -0.1646  -11.1954    4.6924 H   0  0  0  0  0  0  0  0  0  0  0  0
    1.4331  -11.9180    5.2692 H   0  0  0  0  0  0  0  0  0  0  0  0
    3.0170   -9.1070    6.0154 H   0  0  0  0  0  0  0  0  0  0  0  0
    3.2704  -11.2997    5.9245 H   0  0  0  0  0  0  0  0  0  0  0  0
    3.7008   -9.3720    1.7423 H   0  0  0  0  0  0  0  0  0  0  0  0
    3.1562  -10.6321    2.7633 H   0  0  0  0  0  0  0  0  0  0  0  0
    4.8176  -10.0975    2.9151 H   0  0  0  0  0  0  0  0  0  0  0  0
    1.7858   -8.6033    2.4591 H   0  0  0  0  0  0  0  0  0  0  0  0
    1.3192   -6.4810    2.0872 H   0  0  0  0  0  0  0  0  0  0  0  0
    2.5595   -5.7096    4.4292 H   0  0  0  0  0  0  0  0  0  0  0  0
    3.2237   -7.2386    1.3753 H   0  0  0  0  0  0  0  0  0  0  0  0
    3.4233   -5.7526    0.0117 H   0  0  0  0  0  0  0  0  0  0  0  0
    2.9386   -3.6437    0.3451 H   0  0  0  0  0  0  0  0  0  0  0  0
    5.3520   -4.1685    0.3162 H   0  0  0  0  0  0  0  0  0  0  0  0
    6.5294   -5.9899    4.0058 H   0  0  0  0  0  0  0  0  0  0  0  0
    8.0807   -5.6777    3.0554 H   0  0  0  0  0  0  0  0  0  0  0  0
    6.6091   -4.0094    2.3241 H   0  0  0  0  0  0  0  0  0  0  0  0
    5.5263   -3.2166    3.9892 H   0  0  0  0  0  0  0  0  0  0  0  0
    3.1142   -3.9184    2.8975 H   0  0  0  0  0  0  0  0  0  0  0  0
    5.8477   -4.7382    5.4748 H   0  0  0  0  0  0  0  0  0  0  0  0
    1.9648   -4.6421    5.9785 H   0  0  0  0  0  0  0  0  0  0  0  0
    6.6592   -6.9821    5.8810 H   0  0  0  0  0  0  0  0  0  0  0  0
    5.4489   -8.0354    6.5648 H   0  0  0  0  0  0  0  0  0  0  0  0
    5.6781   -6.4381    7.2095 H   0  0  0  0  0  0  0  0  0  0  0  0
    5.4145   -8.2479    4.2486 H   0  0  0  0  0  0  0  0  0  0  0  0
   -0.2999   -9.6717    2.7581 H   0  0  0  0  0  0  0  0  0  0  0  0
   -0.7679   -8.0133    2.8886 H   0  0  0  0  0  0  0  0  0  0  0  0
   -1.2630   -9.1491    4.1239 H   0  0  0  0  0  0  0  0  0  0  0  0
    0.9150   -6.3272    7.4137 H   0  0  0  0  0  0  0  0  0  0  0  0
   -0.3846   -4.6492    8.3493 H   0  0  0  0  0  0  0  0  0  0  0  0
   -2.1623   -3.5664    6.7632 H   0  0  0  0  0  0  0  0  0  0  0  0
   -2.7832   -4.6469    8.0513 H   0  0  0  0  0  0  0  0  0  0  0  0
   -2.6392   -5.2634    6.4112 H   0  0  0  0  0  0  0  0  0  0  0  0
    2.6820   -4.7300    7.6162 H   0  0  0  0  0  0  0  0  0  0  0  0
  1  2  2  0
  1 40  1  0
  1 41  1  0
  2 32  1  0
  2  3  1  0
  3  4  1  0
  3  5  1  0
  3 42  1  1
  4 43  1  0
  5 31  1  0
  5  6  1  6
  5  7  1  0
  6 44  1  0
  6 45  1  0
  6 46  1  0
  7  8  1  0
  7 32  1  0
  7 47  1  6
  8  9  1  0
  8 10  1  0
  8 48  1  6
  9 49  1  0
 10 17  1  0
 10 11  1  0
 10 50  1  6
 11 12  1  0
 11 13  1  0
 11 51  1  6
 12 52  1  0
 13 20  1  0
 13 14  1  0
 13 53  1  6
 14 15  1  0
 15 16  2  0
 17 15  1  6
 17 31  1  0
 17 18  1  0
 18 19  1  0
 18 20  1  0
 18 54  1  1
 19 55  1  0
 20 21  1  0
 20 56  1  6
 21 22  1  0
 21 57  1  1
 21 23  1  0
 22 58  1  0
 23 59  1  1
 23 29  1  0
 23 24  1  0
 24 26  1  0
 24 25  2  0
 26 27  1  0
 26 60  1  0
 26 73  1  0
 27 29  1  0
 27 28  2  0
 29 30  1  1
 29 31  1  0
 30 61  1  0
 30 62  1  0
 30 63  1  0
 31 64  1  1
 32 33  1  0
 32 34  1  1
 33 65  1  0
 33 66  1  0
 33 67  1  0
 34 35  1  0
 35 36  2  0
 35 37  1  0
 37 38  2  3
 37 68  1  0
 38 39  1  0
 38 69  1  0
 39 70  1  0
 39 71  1  0
 39 72  1  0
M  END
>  <i_m_ct_stereo_status>  (232) 
1

>  <s_m_source_file>  (232) 
/var/tmp/pbs.5076255.sched01/tmpavn81tjv/78c0r2i372.sdf

>  <i_m_source_file_index>  (232) 
11

>  <i_lp_mmshare_version>  (232) 
48012

>  <i_f3d_flags>  (232) 
0

>  <s_epik_input>  (232) 
W0NIM11cW0NIXT1bQ0hdXEMoPU8pT1tDQF0xKFtDSDNdKUMoPVtDSDJdKVtDQEBIXShbT0hdKVtDQEBdKFtDSDNdKShbQ0BASF0xW0NAQEhdKFtPSF0pW0NAQEhdMltDQEBdMzQ1KVtDQEBIXTVbQ0BAXTYoW0NIM10pW0NASF0oQyg9TylbQ0gyXUM2PU8pW0NASF0oW09IXSlbQ0BASF0oW0NAQEhdNFtPSF0pW0NASF0oW0NAQEhdMltPSF0pT0MzPU8=

>  <s_epik_cmdline>  (232) 
J2VwaWtfcHl0aG9uJywgJy1waHQnLCAnMi4wJywgJy1waCcsICc3LjAnLCAnLXRuJywgJzgnLCAnLW1hJywgJzIwMCcsICctaW1hZScsICc8aW5maWxlLm1hZT4nLCAnLW9tYWUnLCAnPG91dGZpbGUubWFlPic=

>  <r_lp_tautomer_probability>  (232) 
0.0032736

>  <r_epik_Ionization_Penalty>  (232) 
0.0037579

>  <r_epik_Ionization_Penalty_Charging>  (232) 
0

>  <r_epik_Ionization_Penalty_Neutral>  (232) 
0.0037579

>  <r_epik_State_Penalty>  (232) 
0.780914

>  <r_epik_Charging_Adjusted_Penalty>  (232) 
0.780914

>  <i_epik_Tot_Q>  (232) 
0

>  <i_epik_Tot_abs_Q>  (232) 
0

>  <s_epik_Chemistry_Notes>  (232) 
This compound has an ester and may undergo hydrolysis at high or low pH.

>  <s_lp_Force_Field>  (232) 
OPLS3e

>  <r_lp_Energy>  (232) 
196.949

>  <b_lp_Chiralities_Consistent>  (232) 
1

>  <s_lp_Variant>  (232) 
66:0-6

>  <s_i_glide_gridfile>  (232) 
pfpi4k_grid

>  <i_i_glide_lignum>  (232) 
11

>  <i_i_glide_rotatable_bonds>  (232) 
8

>  <r_i_docking_score>  (232) 
-2.90905

>  <r_i_glide_ligand_efficiency>  (232) 
-0.074591

>  <r_i_glide_ligand_efficiency_sa>  (232) 
-0.252954

>  <r_i_glide_ligand_efficiency_ln>  (232) 
-0.623782

>  <r_i_glide_gscore>  (232) 
-2.90905

>  <r_i_glide_lipo>  (232) 
-0.216065

>  <r_i_glide_hbond>  (232) 
0

>  <r_i_glide_metal>  (232) 
-0

>  <r_i_glide_rewards>  (232) 
-1.13452

>  <r_i_glide_evdw>  (232) 
-27.1424

>  <r_i_glide_ecoul>  (232) 
-2.6312

>  <r_i_glide_erotb>  (232) 
0.207987

>  <r_i_glide_esite>  (232) 
-0.0146478

>  <r_i_glide_emodel>  (232) 
-44.2427

>  <r_i_glide_energy>  (232) 
-29.7736

>  <r_i_glide_einternal>  (232) 
4.98754

>  <r_i_glide_intrahb_reward>  (232) 
-1

>  <i_i_glide_confnum>  (232) 
6

>  <i_i_glide_posenum>  (232) 
29

>  <r_i_glide_eff_state_penalty>  (232) 
0

>  <ligand_id>  (232) 
66

>  <original_smiles>  (232) 
C=C1C(O)C2(C)C(C(O)C3C(O)C4OC(=O)C35C(O)C4C(O)C3C(=O)CC(=O)C3(C)C25)C1(C)OC(=O)C=CC

>  <smiles>  (232) 
[H]OC1([H])C(=C([H])[H])C(OC(=O)C([H])=C([H])C([H])([H])[H])(C([H])([H])[H])C2([H])C([H])(O[H])C3([H])C([H])(O[H])C4([H])OC(=O)C35C([H])(O[H])C4([H])C([H])(O[H])C3([H])C(=O)C([H])([H])C(=O)C3(C([H])([H])[H])C5([H])C12C([H])([H])[H]

$$$$
69:0:0
     RDKit          3D

 51 56  0  0  1  0  0  0  0  0999 V2000
    3.7526    0.0937    1.9823 C   0  0  0  0  0  0  0  0  0  0  0  0
    4.3195   -1.1239    2.5674 N   0  0  0  0  0  0  0  0  0  0  0  0
    4.7902   -1.2464    3.8714 C   0  0  0  0  0  0  0  0  0  0  0  0
    5.1955   -2.5517    4.0400 C   0  0  0  0  0  0  0  0  0  0  0  0
    4.9883   -3.2500    2.8518 N   0  0  0  0  0  0  0  0  0  0  0  0
    4.4774   -2.3513    2.0126 C   0  0  0  0  0  0  0  0  0  0  0  0
    4.1015   -2.6259    0.6728 N   0  0  0  0  0  0  0  0  0  0  0  0
    4.3576   -1.7310   -0.3032 N   0  0  0  0  0  0  0  0  0  0  0  0
    3.7926   -2.2339   -1.3848 C   0  0  0  0  0  0  0  0  0  0  0  0
    3.7505   -1.5229   -2.5794 N   0  0  0  0  0  0  0  0  0  0  0  0
    3.0926   -2.0126   -3.8016 C   0  0  0  0  0  0  0  0  0  0  0  0
    3.7368   -1.0462   -4.7651 C   0  0  1  0  0  0  0  0  0  0  0  0
    3.2713   -0.1954   -5.9366 C   0  0  0  0  0  0  0  0  0  0  0  0
    4.0488    0.9347   -5.2640 C   0  0  0  0  0  0  0  0  0  0  0  0
    3.6632    0.2362   -3.9760 C   0  0  2  0  0  0  0  0  0  0  0  0
    4.3494   -0.1896   -2.7102 C   0  0  0  0  0  0  0  0  0  0  0  0
    3.2722   -3.5414   -1.2057 C   0  0  0  0  0  0  0  0  0  0  0  0
    3.4772   -3.7448    0.1276 C   0  0  0  0  0  0  0  0  0  0  0  0
    3.1752   -4.8663    0.8381 N   0  0  0  0  0  0  0  0  0  0  0  0
    2.1478   -5.7190    0.6404 C   0  0  0  0  0  0  0  0  0  0  0  0
    1.3149   -5.5799   -0.2599 O   0  0  0  0  0  0  0  0  0  0  0  0
    2.0310   -6.8313    1.6260 C   0  0  0  0  0  0  0  0  0  0  0  0
    3.0464   -7.6579    2.1723 C   0  0  0  0  0  0  0  0  0  0  0  0
    2.5967   -8.5993    2.9616 N   0  0  0  0  0  0  0  0  0  0  0  0
    1.2394   -8.4233    2.9374 N   0  0  0  0  0  0  0  0  0  0  0  0
    0.3428   -9.1743    3.6297 C   0  0  0  0  0  0  0  0  0  0  0  0
   -0.9813   -8.8438    3.4963 C   0  0  0  0  0  0  0  0  0  0  0  0
   -1.3419   -7.7774    2.6545 C   0  0  0  0  0  0  0  0  0  0  0  0
   -0.4689   -7.0157    1.9853 N   0  0  0  0  0  0  0  0  0  0  0  0
    0.8449   -7.3436    2.1136 C   0  0  0  0  0  0  0  0  0  0  0  0
    3.8166    0.9248    2.6829 H   0  0  0  0  0  0  0  0  0  0  0  0
    2.7066   -0.0688    1.7096 H   0  0  0  0  0  0  0  0  0  0  0  0
    4.2951    0.4100    1.0906 H   0  0  0  0  0  0  0  0  0  0  0  0
    4.7923   -0.4061    4.5503 H   0  0  0  0  0  0  0  0  0  0  0  0
    5.6490   -3.0363    4.9028 H   0  0  0  0  0  0  0  0  0  0  0  0
    2.0139   -1.8801   -3.7324 H   0  0  0  0  0  0  0  0  0  0  0  0
    3.3097   -3.0633   -4.0113 H   0  0  0  0  0  0  0  0  0  0  0  0
    4.7748   -1.3047   -4.9314 H   0  0  0  0  0  0  0  0  0  0  0  0
    3.6815   -0.4944   -6.9064 H   0  0  0  0  0  0  0  0  0  0  0  0
    2.2043   -0.0116   -5.9207 H   0  0  0  0  0  0  0  0  0  0  0  0
    5.0944    0.9471   -5.5164 H   0  0  0  0  0  0  0  0  0  0  0  0
    3.5811    1.9173   -5.4195 H   0  0  0  0  0  0  0  0  0  0  0  0
    2.6172    0.4919   -3.7911 H   0  0  0  0  0  0  0  0  0  0  0  0
    5.4199   -0.3473   -2.8040 H   0  0  0  0  0  0  0  0  0  0  0  0
    4.2178    0.4957   -1.8805 H   0  0  0  0  0  0  0  0  0  0  0  0
    2.8329   -4.2229   -1.9228 H   0  0  0  0  0  0  0  0  0  0  0  0
    4.1042   -7.5912    1.9784 H   0  0  0  0  0  0  0  0  0  0  0  0
    0.7130   -9.9759    4.2598 H   0  0  0  0  0  0  0  0  0  0  0  0
   -1.7172   -9.4252    4.0403 H   0  0  0  0  0  0  0  0  0  0  0  0
   -2.3994   -7.5382    2.5559 H   0  0  0  0  0  0  0  0  0  0  0  0
    3.7359   -5.0204    1.6601 H   0  0  0  0  0  0  0  0  0  0  0  0
  1  2  1  0
  1 31  1  0
  1 32  1  0
  1 33  1  0
  2  6  1  0
  2  3  1  0
  3  4  2  0
  3 34  1  0
  4  5  1  0
  4 35  1  0
  5  6  2  0
  6  7  1  0
  7 18  1  0
  7  8  1  0
  8  9  2  0
  9 10  1  0
  9 17  1  0
 10 16  1  0
 10 11  1  0
 11 12  1  0
 11 36  1  0
 11 37  1  0
 12 15  1  0
 12 13  1  0
 12 38  1  6
 13 14  1  0
 13 39  1  0
 13 40  1  0
 14 15  1  0
 14 41  1  0
 14 42  1  0
 15 16  1  0
 15 43  1  1
 16 44  1  0
 16 45  1  0
 17 18  2  0
 17 46  1  0
 18 19  1  0
 19 20  1  0
 19 51  1  0
 20 21  2  0
 20 22  1  0
 22 30  2  0
 22 23  1  0
 23 24  2  0
 23 47  1  0
 24 25  1  0
 25 30  1  0
 25 26  1  0
 26 27  2  0
 26 48  1  0
 27 28  1  0
 27 49  1  0
 28 29  2  0
 28 50  1  0
 29 30  1  0
M  END
>  <i_m_ct_stereo_status>  (233) 
1

>  <s_m_source_file>  (233) 
/var/tmp/pbs.5076255.sched01/tmpavn81tjv/78c0r2i372.sdf

>  <i_m_source_file_index>  (233) 
15

>  <i_lp_mmshare_version>  (233) 
48012

>  <i_f3d_flags>  (233) 
0

>  <s_epik_input>  (233) 
W0NIM11uMVtjSF1bY0hdbmMxLW4yW25IXWMoTihbQ0gyXTMpW0NIMl1bQ0BIXShbQ0BASF0zNClbQ0gyXVtDSDJdNClbY0hdY1wyPU4vQyg9TyljKFtjSF1uNSljKG41NiluW2NIXVtjSF1bY0hdNg==

>  <s_epik_cmdline>  (233) 
J2VwaWtfcHl0aG9uJywgJy1waHQnLCAnMi4wJywgJy1waCcsICc3LjAnLCAnLXRuJywgJzgnLCAnLW1hJywgJzIwMCcsICctaW1hZScsICc8aW5maWxlLm1hZT4nLCAnLW9tYWUnLCAnPG91dGZpbGUubWFlPic=

>  <r_lp_tautomer_probability>  (233) 
1

>  <r_epik_Ionization_Penalty>  (233) 
0.0695069

>  <r_epik_Ionization_Penalty_Charging>  (233) 
0.0668275

>  <r_epik_Ionization_Penalty_Neutral>  (233) 
0.00267937

>  <r_epik_State_Penalty>  (233) 
-0

>  <r_epik_Charging_Adjusted_Penalty>  (233) 
0.0668275

>  <i_epik_Tot_Q>  (233) 
0

>  <i_epik_Tot_abs_Q>  (233) 
0

>  <s_lp_Force_Field>  (233) 
OPLS3e

>  <r_lp_Energy>  (233) 
60.9773

>  <b_lp_Chiralities_Consistent>  (233) 
1

>  <s_lp_Variant>  (233) 
69:0-1

>  <s_i_glide_gridfile>  (233) 
pfpi4k_grid

>  <i_i_glide_lignum>  (233) 
15

>  <i_i_glide_rotatable_bonds>  (233) 
5

>  <r_i_docking_score>  (233) 
-3.79111

>  <r_i_glide_ligand_efficiency>  (233) 
-0.12637

>  <r_i_glide_ligand_efficiency_sa>  (233) 
-0.392662

>  <r_i_glide_ligand_efficiency_ln>  (233) 
-0.861381

>  <r_i_glide_gscore>  (233) 
-3.79111

>  <r_i_glide_lipo>  (233) 
-0.510666

>  <r_i_glide_hbond>  (233) 
-0.461721

>  <r_i_glide_metal>  (233) 
-0

>  <r_i_glide_rewards>  (233) 
-0.843577

>  <r_i_glide_evdw>  (233) 
-27.4917

>  <r_i_glide_ecoul>  (233) 
-6.89747

>  <r_i_glide_erotb>  (233) 
0.603127

>  <r_i_glide_esite>  (233) 
-0.169063

>  <r_i_glide_emodel>  (233) 
-41.6928

>  <r_i_glide_energy>  (233) 
-34.3892

>  <r_i_glide_einternal>  (233) 
1.54557

>  <r_i_glide_intrahb_reward>  (233) 
-0

>  <i_i_glide_confnum>  (233) 
2

>  <i_i_glide_posenum>  (233) 
17

>  <r_i_glide_eff_state_penalty>  (233) 
0

>  <ligand_id>  (233) 
69

>  <original_smiles>  (233) 
Cn1ccnc1-n1[nH]c(N2CC3CCC3C2)cc1=NC(=O)c1cnn2cccnc12

>  <smiles>  (233) 
[H]c1nc2c(C(=O)N([H])c3c([H])c(N4C([H])([H])C5([H])C([H])([H])C([H])([H])C5([H])C4([H])[H])nn3-c3nc([H])c([H])n3C([H])([H])[H])c([H])nn2c([H])c1[H]

$$$$
69:0:1
     RDKit          3D

 51 56  0  0  1  0  0  0  0  0999 V2000
    3.2666    3.2133    4.5658 C   0  0  0  0  0  0  0  0  0  0  0  0
    3.8218    2.0433    5.2411 N   0  0  0  0  0  0  0  0  0  0  0  0
    4.3841    2.0362    6.5156 C   0  0  0  0  0  0  0  0  0  0  0  0
    4.8233    0.7515    6.7633 C   0  0  0  0  0  0  0  0  0  0  0  0
    4.5454   -0.0423    5.6603 N   0  0  0  0  0  0  0  0  0  0  0  0
    3.9396    0.7703    4.8006 C   0  0  0  0  0  0  0  0  0  0  0  0
    3.4871    0.3604    3.5301 N   0  0  0  0  0  0  0  0  0  0  0  0
    4.3604   -0.2405    2.6857 N   0  0  0  0  0  0  0  0  0  0  0  0
    3.6800   -0.4498    1.5709 C   0  0  0  0  0  0  0  0  0  0  0  0
    4.2808   -1.0734    0.4661 N   0  0  0  0  0  0  0  0  0  0  0  0
    3.5442   -1.5149   -0.7289 C   0  0  0  0  0  0  0  0  0  0  0  0
    4.5700   -2.4538   -1.3160 C   0  0  1  0  0  0  0  0  0  0  0  0
    5.1310   -2.7291   -2.7104 C   0  0  0  0  0  0  0  0  0  0  0  0
    6.5156   -2.6755   -1.9878 C   0  0  0  0  0  0  0  0  0  0  0  0
    5.8308   -1.6417   -1.0935 C   0  0  2  0  0  0  0  0  0  0  0  0
    5.7217   -1.3959    0.3950 C   0  0  0  0  0  0  0  0  0  0  0  0
    2.3320    0.0176    1.6410 C   0  0  0  0  0  0  0  0  0  0  0  0
    2.2439    0.4601    2.9338 C   0  0  0  0  0  0  0  0  0  0  0  0
    1.1301    1.0183    3.5005 N   0  0  0  0  0  0  0  0  0  0  0  0
    0.6260    0.7532    4.7266 C   0  0  0  0  0  0  0  0  0  0  0  0
    1.0102   -0.1844    5.4274 O   0  0  0  0  0  0  0  0  0  0  0  0
   -0.4358    1.7120    5.1910 C   0  0  0  0  0  0  0  0  0  0  0  0
   -1.2192    2.6194    4.4352 C   0  0  0  0  0  0  0  0  0  0  0  0
   -2.0838    3.3046    5.1503 N   0  0  0  0  0  0  0  0  0  0  0  0
   -1.8865    2.8597    6.4232 N   0  0  0  0  0  0  0  0  0  0  0  0
   -2.5728    3.2780    7.5232 C   0  0  0  0  0  0  0  0  0  0  0  0
   -2.2465    2.7340    8.7390 C   0  0  0  0  0  0  0  0  0  0  0  0
   -1.2110    1.7664    8.7775 C   0  0  0  0  0  0  0  0  0  0  0  0
   -0.5555    1.3285    7.7032 N   0  0  0  0  0  0  0  0  0  0  0  0
   -0.8633    1.8742    6.4989 C   0  0  0  0  0  0  0  0  0  0  0  0
    3.4538    4.1087    5.1568 H   0  0  0  0  0  0  0  0  0  0  0  0
    2.1865    3.1299    4.4461 H   0  0  0  0  0  0  0  0  0  0  0  0
    3.7179    3.3335    3.5794 H   0  0  0  0  0  0  0  0  0  0  0  0
    4.4322    2.9306    7.1227 H   0  0  0  0  0  0  0  0  0  0  0  0
    5.3220    0.3393    7.6393 H   0  0  0  0  0  0  0  0  0  0  0  0
    3.3184   -0.6712   -1.3719 H   0  0  0  0  0  0  0  0  0  0  0  0
    2.6227   -2.0255   -0.4672 H   0  0  0  0  0  0  0  0  0  0  0  0
    4.5979   -3.3957   -0.7531 H   0  0  0  0  0  0  0  0  0  0  0  0
    4.8823   -3.7163   -3.1012 H   0  0  0  0  0  0  0  0  0  0  0  0
    4.9480   -1.9326   -3.4400 H   0  0  0  0  0  0  0  0  0  0  0  0
    6.8100   -3.6005   -1.4820 H   0  0  0  0  0  0  0  0  0  0  0  0
    7.3190   -2.2769   -2.6045 H   0  0  0  0  0  0  0  0  0  0  0  0
    5.7838   -0.6912   -1.6389 H   0  0  0  0  0  0  0  0  0  0  0  0
    5.9597   -2.2840    0.9844 H   0  0  0  0  0  0  0  0  0  0  0  0
    6.3529   -0.5747    0.7436 H   0  0  0  0  0  0  0  0  0  0  0  0
    1.5643    0.0071    0.8790 H   0  0  0  0  0  0  0  0  0  0  0  0
   -1.1926    2.7800    3.3724 H   0  0  0  0  0  0  0  0  0  0  0  0
   -3.3480    4.0258    7.3947 H   0  0  0  0  0  0  0  0  0  0  0  0
   -2.7659    3.0454    9.6443 H   0  0  0  0  0  0  0  0  0  0  0  0
   -0.9408    1.3363    9.7381 H   0  0  0  0  0  0  0  0  0  0  0  0
    0.7229    1.7826    2.9829 H   0  0  0  0  0  0  0  0  0  0  0  0
  1  2  1  0
  1 31  1  0
  1 32  1  0
  1 33  1  0
  2  6  1  0
  2  3  1  0
  3  4  2  0
  3 34  1  0
  4  5  1  0
  4 35  1  0
  5  6  2  0
  6  7  1  0
  7 18  1  0
  7  8  1  0
  8  9  2  0
  9 10  1  0
  9 17  1  0
 10 16  1  0
 10 11  1  0
 11 12  1  0
 11 36  1  0
 11 37  1  0
 12 15  1  0
 12 13  1  0
 12 38  1  1
 13 14  1  0
 13 39  1  0
 13 40  1  0
 14 15  1  0
 14 41  1  0
 14 42  1  0
 15 16  1  0
 15 43  1  6
 16 44  1  0
 16 45  1  0
 17 18  2  0
 17 46  1  0
 18 19  1  0
 19 20  1  0
 19 51  1  0
 20 21  2  0
 20 22  1  0
 22 30  2  0
 22 23  1  0
 23 24  2  0
 23 47  1  0
 24 25  1  0
 25 30  1  0
 25 26  1  0
 26 27  2  0
 26 48  1  0
 27 28  1  0
 27 49  1  0
 28 29  2  0
 28 50  1  0
 29 30  1  0
M  END
>  <i_m_ct_stereo_status>  (234) 
1

>  <s_m_source_file>  (234) 
/var/tmp/pbs.5076255.sched01/tmpavn81tjv/78c0r2i372.sdf

>  <i_m_source_file_index>  (234) 
15

>  <i_lp_mmshare_version>  (234) 
48012

>  <i_f3d_flags>  (234) 
0

>  <s_epik_input>  (234) 
W0NIM11uMVtjSF1bY0hdbmMxLW4yW25IXWMoTihbQ0gyXTMpW0NIMl1bQ0BIXShbQ0BASF0zNClbQ0gyXVtDSDJdNClbY0hdY1wyPU4vQyg9TyljKFtjSF1uNSljKG41NiluW2NIXVtjSF1bY0hdNg==

>  <s_epik_cmdline>  (234) 
J2VwaWtfcHl0aG9uJywgJy1waHQnLCAnMi4wJywgJy1waCcsICc3LjAnLCAnLXRuJywgJzgnLCAnLW1hJywgJzIwMCcsICctaW1hZScsICc8aW5maWxlLm1hZT4nLCAnLW9tYWUnLCAnPG91dGZpbGUubWFlPic=

>  <r_lp_tautomer_probability>  (234) 
1

>  <r_epik_Ionization_Penalty>  (234) 
0.0695069

>  <r_epik_Ionization_Penalty_Charging>  (234) 
0.0668275

>  <r_epik_Ionization_Penalty_Neutral>  (234) 
0.00267937

>  <r_epik_State_Penalty>  (234) 
-0

>  <r_epik_Charging_Adjusted_Penalty>  (234) 
0.0668275

>  <i_epik_Tot_Q>  (234) 
0

>  <i_epik_Tot_abs_Q>  (234) 
0

>  <s_lp_Force_Field>  (234) 
OPLS3e

>  <r_lp_Energy>  (234) 
60.9773

>  <b_lp_Chiralities_Consistent>  (234) 
1

>  <s_lp_Variant>  (234) 
69:0-1

>  <s_i_glide_gridfile>  (234) 
pfpi4k_grid

>  <i_i_glide_lignum>  (234) 
15

>  <i_i_glide_rotatable_bonds>  (234) 
5

>  <r_i_docking_score>  (234) 
-2.68276

>  <r_i_glide_ligand_efficiency>  (234) 
-0.0894252

>  <r_i_glide_ligand_efficiency_sa>  (234) 
-0.277865

>  <r_i_glide_ligand_efficiency_ln>  (234) 
-0.609551

>  <r_i_glide_gscore>  (234) 
-2.68276

>  <r_i_glide_lipo>  (234) 
-0.393752

>  <r_i_glide_hbond>  (234) 
0

>  <r_i_glide_metal>  (234) 
-0

>  <r_i_glide_rewards>  (234) 
-0.757502

>  <r_i_glide_evdw>  (234) 
-29.7045

>  <r_i_glide_ecoul>  (234) 
-4.08632

>  <r_i_glide_erotb>  (234) 
0.603127

>  <r_i_glide_esite>  (234) 
-0.0364549

>  <r_i_glide_emodel>  (234) 
-38.15

>  <r_i_glide_energy>  (234) 
-33.7908

>  <r_i_glide_einternal>  (234) 
2.3914

>  <r_i_glide_intrahb_reward>  (234) 
-0

>  <i_i_glide_confnum>  (234) 
3

>  <i_i_glide_posenum>  (234) 
35

>  <r_i_glide_eff_state_penalty>  (234) 
0

>  <ligand_id>  (234) 
69

>  <original_smiles>  (234) 
Cn1ccnc1-n1[nH]c(N2CC3CCC3C2)cc1=NC(=O)c1cnn2cccnc12

>  <smiles>  (234) 
[H]c1nc2c(C(=O)N([H])c3c([H])c(N4C([H])([H])C5([H])C([H])([H])C([H])([H])C5([H])C4([H])[H])nn3-c3nc([H])c([H])n3C([H])([H])[H])c([H])nn2c([H])c1[H]

$$$$
69:0:2
     RDKit          3D

 51 56  0  0  1  0  0  0  0  0999 V2000
    0.6076   -2.9360    4.5072 C   0  0  0  0  0  0  0  0  0  0  0  0
   -0.2296   -1.7612    4.7354 N   0  0  0  0  0  0  0  0  0  0  0  0
   -1.3718   -1.7514    5.5262 C   0  0  0  0  0  0  0  0  0  0  0  0
   -1.8737   -0.4690    5.4914 C   0  0  0  0  0  0  0  0  0  0  0  0
   -1.0479    0.3271    4.7066 N   0  0  0  0  0  0  0  0  0  0  0  0
   -0.0931   -0.4891    4.2744 C   0  0  0  0  0  0  0  0  0  0  0  0
    0.9668   -0.0829    3.4245 N   0  0  0  0  0  0  0  0  0  0  0  0
    1.5774   -0.9908    2.6333 N   0  0  0  0  0  0  0  0  0  0  0  0
    2.5495   -0.3488    2.0272 C   0  0  0  0  0  0  0  0  0  0  0  0
    3.4704   -1.0254    1.2262 N   0  0  0  0  0  0  0  0  0  0  0  0
    4.5652   -0.3516    0.5169 C   0  0  0  0  0  0  0  0  0  0  0  0
    4.8639   -1.4215   -0.5085 C   0  0  1  0  0  0  0  0  0  0  0  0
    6.1266   -2.0632   -1.0823 C   0  0  0  0  0  0  0  0  0  0  0  0
    5.3769   -3.4057   -0.8246 C   0  0  0  0  0  0  0  0  0  0  0  0
    4.7774   -2.6603    0.3668 C   0  0  2  0  0  0  0  0  0  0  0  0
    3.3955   -2.4691    0.9417 C   0  0  0  0  0  0  0  0  0  0  0  0
    2.5786    1.0381    2.3320 C   0  0  0  0  0  0  0  0  0  0  0  0
    1.5487    1.1653    3.2343 C   0  0  0  0  0  0  0  0  0  0  0  0
    1.1437    2.2962    3.8909 N   0  0  0  0  0  0  0  0  0  0  0  0
    1.6424    3.5503    3.7558 C   0  0  0  0  0  0  0  0  0  0  0  0
    2.5291    3.8653    2.9652 O   0  0  0  0  0  0  0  0  0  0  0  0
    1.0093    4.6202    4.5757 C   0  0  0  0  0  0  0  0  0  0  0  0
    0.8365    5.9695    4.1981 C   0  0  0  0  0  0  0  0  0  0  0  0
    0.3287    6.7210    5.1463 N   0  0  0  0  0  0  0  0  0  0  0  0
    0.1982    5.8687    6.1995 N   0  0  0  0  0  0  0  0  0  0  0  0
   -0.2765    6.2056    7.4276 C   0  0  0  0  0  0  0  0  0  0  0  0
   -0.3629    5.2121    8.3729 C   0  0  0  0  0  0  0  0  0  0  0  0
    0.0717    3.9082    8.0237 C   0  0  0  0  0  0  0  0  0  0  0  0
    0.5462    3.5722    6.8253 N   0  0  0  0  0  0  0  0  0  0  0  0
    0.6132    4.5463    5.8919 C   0  0  0  0  0  0  0  0  0  0  0  0
    0.1888   -3.8219    4.9847 H   0  0  0  0  0  0  0  0  0  0  0  0
    1.6108   -2.7540    4.8981 H   0  0  0  0  0  0  0  0  0  0  0  0
    0.6817   -3.1616    3.4425 H   0  0  0  0  0  0  0  0  0  0  0  0
   -1.7166   -2.6465    6.0307 H   0  0  0  0  0  0  0  0  0  0  0  0
   -2.7505   -0.0570    5.9729 H   0  0  0  0  0  0  0  0  0  0  0  0
    5.3995   -0.1635    1.1924 H   0  0  0  0  0  0  0  0  0  0  0  0
    4.2270    0.5824    0.0787 H   0  0  0  0  0  0  0  0  0  0  0  0
    4.0850   -1.4268   -1.2846 H   0  0  0  0  0  0  0  0  0  0  0  0
    6.2867   -1.8545   -2.1382 H   0  0  0  0  0  0  0  0  0  0  0  0
    7.0249   -1.9113   -0.4749 H   0  0  0  0  0  0  0  0  0  0  0  0
    4.6550   -3.6918   -1.5970 H   0  0  0  0  0  0  0  0  0  0  0  0
    6.0385   -4.2256   -0.5510 H   0  0  0  0  0  0  0  0  0  0  0  0
    5.5216   -2.6435    1.1754 H   0  0  0  0  0  0  0  0  0  0  0  0
    2.6030   -2.6844    0.2235 H   0  0  0  0  0  0  0  0  0  0  0  0
    3.2227   -3.0637    1.8400 H   0  0  0  0  0  0  0  0  0  0  0  0
    3.2577    1.7929    1.9621 H   0  0  0  0  0  0  0  0  0  0  0  0
    1.0805    6.4047    3.2417 H   0  0  0  0  0  0  0  0  0  0  0  0
   -0.5785    7.2347    7.5912 H   0  0  0  0  0  0  0  0  0  0  0  0
   -0.7552    5.4268    9.3643 H   0  0  0  0  0  0  0  0  0  0  0  0
    0.0166    3.1154    8.7629 H   0  0  0  0  0  0  0  0  0  0  0  0
    0.3582    2.1686    4.5183 H   0  0  0  0  0  0  0  0  0  0  0  0
  1  2  1  0
  1 31  1  0
  1 32  1  0
  1 33  1  0
  2  6  1  0
  2  3  1  0
  3  4  2  0
  3 34  1  0
  4  5  1  0
  4 35  1  0
  5  6  2  0
  6  7  1  0
  7 18  1  0
  7  8  1  0
  8  9  2  0
  9 10  1  0
  9 17  1  0
 10 16  1  0
 10 11  1  0
 11 12  1  0
 11 36  1  0
 11 37  1  0
 12 15  1  0
 12 13  1  0
 12 38  1  6
 13 14  1  0
 13 39  1  0
 13 40  1  0
 14 15  1  0
 14 41  1  0
 14 42  1  0
 15 16  1  0
 15 43  1  1
 16 44  1  0
 16 45  1  0
 17 18  2  0
 17 46  1  0
 18 19  1  0
 19 20  1  0
 19 51  1  0
 20 21  2  0
 20 22  1  0
 22 30  2  0
 22 23  1  0
 23 24  2  0
 23 47  1  0
 24 25  1  0
 25 30  1  0
 25 26  1  0
 26 27  2  0
 26 48  1  0
 27 28  1  0
 27 49  1  0
 28 29  2  0
 28 50  1  0
 29 30  1  0
M  END
>  <i_m_ct_stereo_status>  (235) 
1

>  <s_m_source_file>  (235) 
/var/tmp/pbs.5076255.sched01/tmpavn81tjv/78c0r2i372.sdf

>  <i_m_source_file_index>  (235) 
15

>  <i_lp_mmshare_version>  (235) 
48012

>  <i_f3d_flags>  (235) 
0

>  <s_epik_input>  (235) 
W0NIM11uMVtjSF1bY0hdbmMxLW4yW25IXWMoTihbQ0gyXTMpW0NIMl1bQ0BIXShbQ0BASF0zNClbQ0gyXVtDSDJdNClbY0hdY1wyPU4vQyg9TyljKFtjSF1uNSljKG41NiluW2NIXVtjSF1bY0hdNg==

>  <s_epik_cmdline>  (235) 
J2VwaWtfcHl0aG9uJywgJy1waHQnLCAnMi4wJywgJy1waCcsICc3LjAnLCAnLXRuJywgJzgnLCAnLW1hJywgJzIwMCcsICctaW1hZScsICc8aW5maWxlLm1hZT4nLCAnLW9tYWUnLCAnPG91dGZpbGUubWFlPic=

>  <r_lp_tautomer_probability>  (235) 
1

>  <r_epik_Ionization_Penalty>  (235) 
0.0695069

>  <r_epik_Ionization_Penalty_Charging>  (235) 
0.0668275

>  <r_epik_Ionization_Penalty_Neutral>  (235) 
0.00267937

>  <r_epik_State_Penalty>  (235) 
-0

>  <r_epik_Charging_Adjusted_Penalty>  (235) 
0.0668275

>  <i_epik_Tot_Q>  (235) 
0

>  <i_epik_Tot_abs_Q>  (235) 
0

>  <s_lp_Force_Field>  (235) 
OPLS3e

>  <r_lp_Energy>  (235) 
60.9773

>  <b_lp_Chiralities_Consistent>  (235) 
1

>  <s_lp_Variant>  (235) 
69:0-1

>  <s_i_glide_gridfile>  (235) 
pfpi4k_grid

>  <i_i_glide_lignum>  (235) 
15

>  <i_i_glide_rotatable_bonds>  (235) 
5

>  <r_i_docking_score>  (235) 
-2.27056

>  <r_i_glide_ligand_efficiency>  (235) 
-0.0756852

>  <r_i_glide_ligand_efficiency_sa>  (235) 
-0.235172

>  <r_i_glide_ligand_efficiency_ln>  (235) 
-0.515895

>  <r_i_glide_gscore>  (235) 
-2.27056

>  <r_i_glide_lipo>  (235) 
-0.283785

>  <r_i_glide_hbond>  (235) 
0

>  <r_i_glide_metal>  (235) 
-0

>  <r_i_glide_rewards>  (235) 
-1.15836

>  <r_i_glide_evdw>  (235) 
-30.1289

>  <r_i_glide_ecoul>  (235) 
1.54671

>  <r_i_glide_erotb>  (235) 
0.603127

>  <r_i_glide_esite>  (235) 
-0.157099

>  <r_i_glide_emodel>  (235) 
-37.5659

>  <r_i_glide_energy>  (235) 
-28.5822

>  <r_i_glide_einternal>  (235) 
1.33652

>  <r_i_glide_intrahb_reward>  (235) 
-0.5

>  <i_i_glide_confnum>  (235) 
1

>  <i_i_glide_posenum>  (235) 
5

>  <r_i_glide_eff_state_penalty>  (235) 
0

>  <ligand_id>  (235) 
69

>  <original_smiles>  (235) 
Cn1ccnc1-n1[nH]c(N2CC3CCC3C2)cc1=NC(=O)c1cnn2cccnc12

>  <smiles>  (235) 
[H]c1nc2c(C(=O)N([H])c3c([H])c(N4C([H])([H])C5([H])C([H])([H])C([H])([H])C5([H])C4([H])[H])nn3-c3nc([H])c([H])n3C([H])([H])[H])c([H])nn2c([H])c1[H]

$$$$
70:0:0
     RDKit          3D

 83 87  0  0  1  0  0  0  0  0999 V2000
    0.8423  -10.3288    2.4356 C   0  0  0  0  0  0  0  0  0  0  0  0
   -0.0024   -9.5309    3.4228 C   0  0  2  0  0  0  0  0  0  0  0  0
   -1.1821   -8.7994    2.7765 C   0  0  0  0  0  0  0  0  0  0  0  0
   -1.4650   -7.6048    3.6965 C   0  0  0  0  0  0  0  0  0  0  0  0
   -0.1092   -7.2531    4.2400 C   0  0  1  0  0  0  0  0  0  0  0  0
   -0.0914   -6.4209    5.5331 C   0  0  0  0  0  0  0  0  0  0  0  0
    1.2738   -5.7292    5.8728 C   0  0  0  0  0  0  0  0  0  0  0  0
    1.5269   -4.2718    5.3852 C   0  0  1  0  0  0  0  0  0  0  0  0
    0.2275   -3.4506    5.5907 C   0  0  0  0  0  0  0  0  0  0  0  0
    2.5753   -3.6561    6.3379 C   0  0  0  0  0  0  0  0  0  0  0  0
    3.9664   -4.3113    6.2388 C   0  0  0  0  0  0  0  0  0  0  0  0
    4.3295   -4.8211    4.8302 C   0  0  0  0  0  0  0  0  0  0  0  0
    3.6355   -4.0582    3.6676 C   0  0  1  0  0  0  0  0  0  0  0  0
    4.0973   -2.5792    3.5930 C   0  0  0  0  0  0  0  0  0  0  0  0
    5.4428   -2.3965    2.9070 C   0  0  0  0  0  0  0  0  0  0  0  0
    5.4723   -2.8928    1.4391 C   0  0  2  0  0  0  0  0  0  0  0  0
    4.9230   -1.8784    0.3626 C   0  0  0  0  0  0  0  0  0  0  0  0
    3.4694   -1.4025    0.6040 C   0  0  0  0  0  0  0  0  0  0  0  0
    5.8128   -0.6085    0.3549 C   0  0  0  0  0  0  0  0  0  0  0  0
    4.9815   -2.5192   -1.0519 C   0  0  1  0  0  0  0  0  0  0  0  0
    6.3130   -2.7101   -1.5083 O   0  0  0  0  0  0  0  0  0  0  0  0
    4.2178   -3.8519   -1.0930 C   0  0  0  0  0  0  0  0  0  0  0  0
    4.8513   -4.8728   -0.1317 C   0  0  0  0  0  0  0  0  0  0  0  0
    5.0759   -4.4088    1.3448 C   0  0  1  0  0  0  0  0  0  0  0  0
    6.3040   -5.2472    1.8096 C   0  0  0  0  0  0  0  0  0  0  0  0
    3.8744   -4.8134    2.2927 C   0  0  2  0  0  0  0  0  0  0  0  0
    2.4914   -4.9710    1.6461 C   0  0  0  0  0  0  0  0  0  0  0  0
    1.6504   -5.0650    2.8481 C   0  0  0  0  0  0  0  0  0  0  0  0
    2.0832   -4.0899    3.8981 C   0  0  1  0  0  0  0  0  0  0  0  0
    0.7974   -8.4803    4.2114 C   0  0  1  0  0  0  0  0  0  0  0  0
    1.1596   -9.0298    5.6369 C   0  0  0  0  0  0  0  0  0  0  0  0
    1.2835   -9.6771    1.6800 H   0  0  0  0  0  0  0  0  0  0  0  0
    0.2118  -11.0667    1.9280 H   0  0  0  0  0  0  0  0  0  0  0  0
    1.6455  -10.8582    2.9452 H   0  0  0  0  0  0  0  0  0  0  0  0
   -0.4295  -10.2290    4.1375 H   0  0  0  0  0  0  0  0  0  0  0  0
   -0.9013   -8.4413    1.7761 H   0  0  0  0  0  0  0  0  0  0  0  0
   -2.0637   -9.4201    2.6843 H   0  0  0  0  0  0  0  0  0  0  0  0
   -1.8978   -6.7683    3.1450 H   0  0  0  0  0  0  0  0  0  0  0  0
   -2.1647   -7.8726    4.5343 H   0  0  0  0  0  0  0  0  0  0  0  0
    0.0877   -6.6658    3.4315 H   0  0  0  0  0  0  0  0  0  0  0  0
   -0.9344   -5.7188    5.5666 H   0  0  0  0  0  0  0  0  0  0  0  0
   -0.3431   -7.0839    6.4058 H   0  0  0  0  0  0  0  0  0  0  0  0
    1.3429   -5.7599    6.9632 H   0  0  0  0  0  0  0  0  0  0  0  0
    2.1184   -6.3443    5.5564 H   0  0  0  0  0  0  0  0  0  0  0  0
    0.3973   -2.3939    5.4090 H   0  0  0  0  0  0  0  0  0  0  0  0
   -0.1421   -3.5451    6.6146 H   0  0  0  0  0  0  0  0  0  0  0  0
   -0.5696   -3.7505    4.9207 H   0  0  0  0  0  0  0  0  0  0  0  0
    2.6600   -2.5950    6.0996 H   0  0  0  0  0  0  0  0  0  0  0  0
    2.2317   -3.6833    7.3753 H   0  0  0  0  0  0  0  0  0  0  0  0
    4.7144   -3.5932    6.5700 H   0  0  0  0  0  0  0  0  0  0  0  0
    4.0251   -5.1431    6.9442 H   0  0  0  0  0  0  0  0  0  0  0  0
    5.4070   -4.8138    4.7094 H   0  0  0  0  0  0  0  0  0  0  0  0
    4.0562   -5.8817    4.7801 H   0  0  0  0  0  0  0  0  0  0  0  0
    3.3485   -1.9893    3.0943 H   0  0  0  0  0  0  0  0  0  0  0  0
    4.1529   -2.1461    4.5890 H   0  0  0  0  0  0  0  0  0  0  0  0
    5.7538   -1.3629    2.9832 H   0  0  0  0  0  0  0  0  0  0  0  0
    6.1788   -2.9415    3.4763 H   0  0  0  0  0  0  0  0  0  0  0  0
    6.5359   -2.8969    1.2021 H   0  0  0  0  0  0  0  0  0  0  0  0
    3.0344   -0.9530   -0.2840 H   0  0  0  0  0  0  0  0  0  0  0  0
    3.3955   -0.6610    1.3886 H   0  0  0  0  0  0  0  0  0  0  0  0
    2.8132   -2.2188    0.8719 H   0  0  0  0  0  0  0  0  0  0  0  0
    5.5671    0.0217   -0.4855 H   0  0  0  0  0  0  0  0  0  0  0  0
    6.8769   -0.8419    0.2728 H   0  0  0  0  0  0  0  0  0  0  0  0
    5.6935    0.0035    1.2450 H   0  0  0  0  0  0  0  0  0  0  0  0
    4.5258   -1.8431   -1.7765 H   0  0  0  0  0  0  0  0  0  0  0  0
    6.2853   -3.1819   -2.3337 H   0  0  0  0  0  0  0  0  0  0  0  0
    3.1636   -3.6930   -0.8914 H   0  0  0  0  0  0  0  0  0  0  0  0
    4.2564   -4.2551   -2.1051 H   0  0  0  0  0  0  0  0  0  0  0  0
    4.2946   -5.8167   -0.1709 H   0  0  0  0  0  0  0  0  0  0  0  0
    5.8070   -5.1214   -0.5695 H   0  0  0  0  0  0  0  0  0  0  0  0
    6.1308   -6.3135    1.7147 H   0  0  0  0  0  0  0  0  0  0  0  0
    6.5934   -5.0531    2.8326 H   0  0  0  0  0  0  0  0  0  0  0  0
    7.1734   -5.0277    1.1977 H   0  0  0  0  0  0  0  0  0  0  0  0
    4.0833   -5.8460    2.5729 H   0  0  0  0  0  0  0  0  0  0  0  0
    2.1568   -4.1465    1.0258 H   0  0  0  0  0  0  0  0  0  0  0  0
    2.4130   -5.8965    1.0565 H   0  0  0  0  0  0  0  0  0  0  0  0
    0.6028   -4.9569    2.5773 H   0  0  0  0  0  0  0  0  0  0  0  0
    1.8788   -6.0858    3.2208 H   0  0  0  0  0  0  0  0  0  0  0  0
    1.6478   -3.1561    3.5456 H   0  0  0  0  0  0  0  0  0  0  0  0
    1.7279   -8.2649    3.7003 H   0  0  0  0  0  0  0  0  0  0  0  0
    0.2220   -9.1673    6.1930 H   0  0  0  0  0  0  0  0  0  0  0  0
    1.7683   -8.3151    6.1870 H   0  0  0  0  0  0  0  0  0  0  0  0
    1.7020   -9.9692    5.6080 H   0  0  0  0  0  0  0  0  0  0  0  0
  1  2  1  0
  1 32  1  0
  1 33  1  0
  1 34  1  0
  2 30  1  0
  2  3  1  0
  2 35  1  1
  3  4  1  0
  3 36  1  0
  3 37  1  0
  4  5  1  0
  4 38  1  0
  4 39  1  0
  5  6  1  0
  5 30  1  0
  5 40  1  6
  6  7  1  0
  6 41  1  0
  6 42  1  0
  8  7  1  1
  7 43  1  0
  7 44  1  0
  8 29  1  0
  8  9  1  0
  8 10  1  0
  9 45  1  0
  9 46  1  0
  9 47  1  0
 10 11  1  0
 10 48  1  0
 10 49  1  0
 11 12  1  0
 11 50  1  0
 11 51  1  0
 13 12  1  1
 12 52  1  0
 12 53  1  0
 13 26  1  0
 13 29  1  0
 13 14  1  0
 14 15  1  0
 14 54  1  0
 14 55  1  0
 15 16  1  0
 15 56  1  0
 15 57  1  0
 16 24  1  0
 16 17  1  0
 16 58  1  6
 17 18  1  0
 17 19  1  0
 17 20  1  0
 18 59  1  0
 18 60  1  0
 18 61  1  0
 19 62  1  0
 19 63  1  0
 19 64  1  0
 20 21  1  0
 20 22  1  0
 20 65  1  6
 21 66  1  0
 22 23  1  0
 22 67  1  0
 22 68  1  0
 23 24  1  0
 23 69  1  0
 23 70  1  0
 24 25  1  1
 24 26  1  0
 25 71  1  0
 25 72  1  0
 25 73  1  0
 26 27  1  0
 26 74  1  1
 27 28  1  0
 27 75  1  0
 27 76  1  0
 28 29  1  0
 28 77  1  0
 28 78  1  0
 29 79  1  6
 30 31  1  0
 30 80  1  6
 31 81  1  0
 31 82  1  0
 31 83  1  0
M  END
>  <i_m_ct_stereo_status>  (236) 
1

>  <s_m_source_file>  (236) 
/var/tmp/pbs.5076255.sched01/tmpavn81tjv/78c0r2i372.sdf

>  <i_m_source_file_index>  (236) 
16

>  <i_lp_mmshare_version>  (236) 
48012

>  <i_f3d_flags>  (236) 
0

>  <s_epik_input>  (236) 
W0NIM11bQ0BASF0xW0NIMl1bQ0gyXVtDQEhdKFtDQEhdMVtDSDNdKVtDSDJdW0NIMl1bQ0BAXShbQ0gzXSkoW0NIMl1bQ0gyXVtDSDJdMilbQ0BASF0zW0NIMl1bQ0gyXVtDQEhdKFtDQF0yMzQpW0NAXTUoW0NIM10pW0NASF0oW0NIMl1bQ0gyXTQpQyhbQ0gzXSkoW0NIM10pW0NAQEhdKFtPSF0pW0NIMl1bQ0gyXTU=

>  <s_epik_cmdline>  (236) 
J2VwaWtfcHl0aG9uJywgJy1waHQnLCAnMi4wJywgJy1waCcsICc3LjAnLCAnLXRuJywgJzgnLCAnLW1hJywgJzIwMCcsICctaW1hZScsICc8aW5maWxlLm1hZT4nLCAnLW9tYWUnLCAnPG91dGZpbGUubWFlPic=

>  <r_lp_tautomer_probability>  (236) 
1

>  <r_epik_Ionization_Penalty>  (236) 
3.07494e-06

>  <r_epik_Ionization_Penalty_Charging>  (236) 
0

>  <r_epik_Ionization_Penalty_Neutral>  (236) 
3.07494e-06

>  <r_epik_State_Penalty>  (236) 
-0

>  <r_epik_Charging_Adjusted_Penalty>  (236) 
0

>  <i_epik_Tot_Q>  (236) 
0

>  <i_epik_Tot_abs_Q>  (236) 
0

>  <s_lp_Force_Field>  (236) 
OPLS3e

>  <r_lp_Energy>  (236) 
98.8608

>  <b_lp_Chiralities_Consistent>  (236) 
1

>  <s_lp_Variant>  (236) 
70:0-1

>  <s_i_glide_gridfile>  (236) 
pfpi4k_grid

>  <i_i_glide_lignum>  (236) 
16

>  <i_i_glide_rotatable_bonds>  (236) 
4

>  <r_i_docking_score>  (236) 
-2.02914

>  <r_i_glide_ligand_efficiency>  (236) 
-0.0654563

>  <r_i_glide_ligand_efficiency_sa>  (236) 
-0.205623

>  <r_i_glide_ligand_efficiency_ln>  (236) 
-0.457634

>  <r_i_glide_gscore>  (236) 
-2.02914

>  <r_i_glide_lipo>  (236) 
-0.57085

>  <r_i_glide_hbond>  (236) 
0

>  <r_i_glide_metal>  (236) 
-0

>  <r_i_glide_rewards>  (236) 
-0.485909

>  <r_i_glide_evdw>  (236) 
-21.5597

>  <r_i_glide_ecoul>  (236) 
-1.45759

>  <r_i_glide_erotb>  (236) 
0.324238

>  <r_i_glide_esite>  (236) 
0

>  <r_i_glide_emodel>  (236) 
-20.4744

>  <r_i_glide_energy>  (236) 
-23.0173

>  <r_i_glide_einternal>  (236) 
3.78238

>  <r_i_glide_intrahb_reward>  (236) 
-0

>  <i_i_glide_confnum>  (236) 
5

>  <i_i_glide_posenum>  (236) 
16

>  <r_i_glide_eff_state_penalty>  (236) 
0

>  <ligand_id>  (236) 
70

>  <original_smiles>  (236) 
CC1CCC(CCC2(C)CCCC34CCC5C(C)(C)C(O)CCC5(C)C3CCC24)C1C

>  <smiles>  (236) 
[H]OC1([H])C([H])([H])C([H])([H])C2(C([H])([H])[H])C([H])(C([H])([H])C([H])([H])C34C([H])([H])C([H])([H])C([H])([H])C(C([H])([H])[H])(C([H])([H])C([H])([H])C5([H])C([H])([H])C([H])([H])C([H])(C([H])([H])[H])C5([H])C([H])([H])[H])C3([H])C([H])([H])C([H])([H])C24[H])C1(C([H])([H])[H])C([H])([H])[H]

$$$$
70:0:1
     RDKit          3D

 83 87  0  0  1  0  0  0  0  0999 V2000
    0.6852  -10.4869    3.0367 C   0  0  0  0  0  0  0  0  0  0  0  0
    1.7943  -10.0013    3.9813 C   0  0  2  0  0  0  0  0  0  0  0  0
    1.5479  -10.3874    5.4467 C   0  0  0  0  0  0  0  0  0  0  0  0
    2.2817   -9.3210    6.2620 C   0  0  0  0  0  0  0  0  0  0  0  0
    2.0627   -8.0463    5.4132 C   0  0  1  0  0  0  0  0  0  0  0  0
    3.1458   -6.9419    5.7429 C   0  0  0  0  0  0  0  0  0  0  0  0
    2.8217   -5.5565    5.0929 C   0  0  0  0  0  0  0  0  0  0  0  0
    1.6682   -4.6946    5.7198 C   0  0  1  0  0  0  0  0  0  0  0  0
    0.3760   -5.5295    5.9399 C   0  0  0  0  0  0  0  0  0  0  0  0
    2.1138   -4.2838    7.1260 C   0  0  0  0  0  0  0  0  0  0  0  0
    3.3291   -3.3327    7.1105 C   0  0  0  0  0  0  0  0  0  0  0  0
    3.3753   -2.3774    5.8899 C   0  0  0  0  0  0  0  0  0  0  0  0
    1.9922   -2.0552    5.2649 C   0  0  1  0  0  0  0  0  0  0  0  0
    1.0974   -1.2751    6.2643 C   0  0  0  0  0  0  0  0  0  0  0  0
    1.4194    0.2141    6.3472 C   0  0  0  0  0  0  0  0  0  0  0  0
    1.2458    0.9594    5.0125 C   0  0  2  0  0  0  0  0  0  0  0  0
   -0.2269    1.4279    4.6591 C   0  0  0  0  0  0  0  0  0  0  0  0
   -1.2695    0.2858    4.6202 C   0  0  0  0  0  0  0  0  0  0  0  0
   -0.7227    2.4455    5.7212 C   0  0  0  0  0  0  0  0  0  0  0  0
   -0.2500    2.1185    3.2753 C   0  0  1  0  0  0  0  0  0  0  0  0
    0.4400    3.3683    3.3206 O   0  0  0  0  0  0  0  0  0  0  0  0
    0.3421    1.2344    2.1788 C   0  0  0  0  0  0  0  0  0  0  0  0
    1.8108    0.8883    2.4676 C   0  0  0  0  0  0  0  0  0  0  0  0
    2.1344    0.3040    3.8791 C   0  0  1  0  0  0  0  0  0  0  0  0
    3.5934    0.7767    4.1356 C   0  0  0  0  0  0  0  0  0  0  0  0
    2.1612   -1.2851    3.8992 C   0  0  2  0  0  0  0  0  0  0  0  0
    1.3258   -2.0568    2.8663 C   0  0  0  0  0  0  0  0  0  0  0  0
    1.4049   -3.5003    3.3396 C   0  0  0  0  0  0  0  0  0  0  0  0
    1.3115   -3.4147    4.8751 C   0  0  1  0  0  0  0  0  0  0  0  0
    2.0326   -8.4911    3.9217 C   0  0  1  0  0  0  0  0  0  0  0  0
    3.2524   -8.1173    3.0536 C   0  0  0  0  0  0  0  0  0  0  0  0
   -0.2802  -10.0604    3.3111 H   0  0  0  0  0  0  0  0  0  0  0  0
    0.6108  -11.5747    3.0780 H   0  0  0  0  0  0  0  0  0  0  0  0
    0.9168  -10.1899    2.0137 H   0  0  0  0  0  0  0  0  0  0  0  0
    2.7355  -10.4797    3.6981 H   0  0  0  0  0  0  0  0  0  0  0  0
    0.4859  -10.3783    5.6794 H   0  0  0  0  0  0  0  0  0  0  0  0
    1.9379  -11.3948    5.6485 H   0  0  0  0  0  0  0  0  0  0  0  0
    1.7981   -9.1745    7.2466 H   0  0  0  0  0  0  0  0  0  0  0  0
    3.3070   -9.5677    6.4253 H   0  0  0  0  0  0  0  0  0  0  0  0
    1.0601   -7.8168    5.6440 H   0  0  0  0  0  0  0  0  0  0  0  0
    3.2876   -6.8681    6.8094 H   0  0  0  0  0  0  0  0  0  0  0  0
    4.1157   -7.2421    5.4117 H   0  0  0  0  0  0  0  0  0  0  0  0
    3.7797   -5.0006    5.1319 H   0  0  0  0  0  0  0  0  0  0  0  0
    2.6191   -5.6856    4.0485 H   0  0  0  0  0  0  0  0  0  0  0  0
   -0.4576   -4.9266    6.3405 H   0  0  0  0  0  0  0  0  0  0  0  0
    0.5622   -6.3210    6.6321 H   0  0  0  0  0  0  0  0  0  0  0  0
    0.0236   -5.9721    4.9955 H   0  0  0  0  0  0  0  0  0  0  0  0
    1.2661   -3.8131    7.6185 H   0  0  0  0  0  0  0  0  0  0  0  0
    2.3473   -5.1660    7.7340 H   0  0  0  0  0  0  0  0  0  0  0  0
    3.3140   -2.7629    8.0390 H   0  0  0  0  0  0  0  0  0  0  0  0
    4.2500   -3.9206    7.1284 H   0  0  0  0  0  0  0  0  0  0  0  0
    3.8975   -1.4725    6.1788 H   0  0  0  0  0  0  0  0  0  0  0  0
    4.0001   -2.8398    5.1266 H   0  0  0  0  0  0  0  0  0  0  0  0
    0.0476   -1.4137    6.0139 H   0  0  0  0  0  0  0  0  0  0  0  0
    1.1770   -1.6899    7.2619 H   0  0  0  0  0  0  0  0  0  0  0  0
    0.8234    0.6695    7.1352 H   0  0  0  0  0  0  0  0  0  0  0  0
    2.4481    0.3237    6.7026 H   0  0  0  0  0  0  0  0  0  0  0  0
    1.7250    1.9196    5.1963 H   0  0  0  0  0  0  0  0  0  0  0  0
   -2.1815    0.5928    4.1096 H   0  0  0  0  0  0  0  0  0  0  0  0
   -1.5704   -0.0342    5.6174 H   0  0  0  0  0  0  0  0  0  0  0  0
   -0.9011   -0.5830    4.0955 H   0  0  0  0  0  0  0  0  0  0  0  0
   -1.6597    2.9172    5.4166 H   0  0  0  0  0  0  0  0  0  0  0  0
   -0.0065    3.2488    5.8786 H   0  0  0  0  0  0  0  0  0  0  0  0
   -0.9000    1.9877    6.6906 H   0  0  0  0  0  0  0  0  0  0  0  0
   -1.2690    2.3718    3.0005 H   0  0  0  0  0  0  0  0  0  0  0  0
    0.3879    3.7388    2.4161 H   0  0  0  0  0  0  0  0  0  0  0  0
   -0.2644    0.3237    2.0548 H   0  0  0  0  0  0  0  0  0  0  0  0
    0.2752    1.7375    1.2140 H   0  0  0  0  0  0  0  0  0  0  0  0
    2.1973    0.2426    1.6872 H   0  0  0  0  0  0  0  0  0  0  0  0
    2.3599    1.8307    2.3286 H   0  0  0  0  0  0  0  0  0  0  0  0
    4.2803    0.4284    3.3601 H   0  0  0  0  0  0  0  0  0  0  0  0
    3.9992    0.4576    5.0927 H   0  0  0  0  0  0  0  0  0  0  0  0
    3.6701    1.8631    4.1243 H   0  0  0  0  0  0  0  0  0  0  0  0
    3.1668   -1.5416    3.5588 H   0  0  0  0  0  0  0  0  0  0  0  0
    0.2951   -1.7320    2.8442 H   0  0  0  0  0  0  0  0  0  0  0  0
    1.7304   -1.9568    1.8561 H   0  0  0  0  0  0  0  0  0  0  0  0
    0.6188   -4.1353    2.9104 H   0  0  0  0  0  0  0  0  0  0  0  0
    2.3589   -3.8739    2.9850 H   0  0  0  0  0  0  0  0  0  0  0  0
    0.2360   -3.2681    5.0192 H   0  0  0  0  0  0  0  0  0  0  0  0
    1.1345   -7.9891    3.5220 H   0  0  0  0  0  0  0  0  0  0  0  0
    4.1474   -8.5463    3.5301 H   0  0  0  0  0  0  0  0  0  0  0  0
    3.3897   -7.0347    2.9511 H   0  0  0  0  0  0  0  0  0  0  0  0
    3.1508   -8.5525    2.0294 H   0  0  0  0  0  0  0  0  0  0  0  0
  1  2  1  0
  1 32  1  0
  1 33  1  0
  1 34  1  0
  2 30  1  0
  2  3  1  0
  2 35  1  6
  3  4  1  0
  3 36  1  0
  3 37  1  0
  4  5  1  0
  4 38  1  0
  4 39  1  0
  5  6  1  0
  5 30  1  0
  5 40  1  1
  6  7  1  0
  6 41  1  0
  6 42  1  0
  8  7  1  6
  7 43  1  0
  7 44  1  0
  8 29  1  0
  8  9  1  0
  8 10  1  0
  9 45  1  0
  9 46  1  0
  9 47  1  0
 10 11  1  0
 10 48  1  0
 10 49  1  0
 11 12  1  0
 11 50  1  0
 11 51  1  0
 13 12  1  1
 12 52  1  0
 12 53  1  0
 13 26  1  0
 13 29  1  0
 13 14  1  0
 14 15  1  0
 14 54  1  0
 14 55  1  0
 15 16  1  0
 15 56  1  0
 15 57  1  0
 16 24  1  0
 16 17  1  0
 16 58  1  1
 17 18  1  0
 17 19  1  0
 17 20  1  0
 18 59  1  0
 18 60  1  0
 18 61  1  0
 19 62  1  0
 19 63  1  0
 19 64  1  0
 20 21  1  0
 20 22  1  0
 20 65  1  6
 21 66  1  0
 22 23  1  0
 22 67  1  0
 22 68  1  0
 23 24  1  0
 23 69  1  0
 23 70  1  0
 24 25  1  1
 24 26  1  0
 25 71  1  0
 25 72  1  0
 25 73  1  0
 26 27  1  0
 26 74  1  6
 27 28  1  0
 27 75  1  0
 27 76  1  0
 28 29  1  0
 28 77  1  0
 28 78  1  0
 29 79  1  6
 30 31  1  0
 30 80  1  6
 31 81  1  0
 31 82  1  0
 31 83  1  0
M  END
>  <i_m_ct_stereo_status>  (237) 
1

>  <s_m_source_file>  (237) 
/var/tmp/pbs.5076255.sched01/tmpavn81tjv/78c0r2i372.sdf

>  <i_m_source_file_index>  (237) 
16

>  <i_lp_mmshare_version>  (237) 
48012

>  <i_f3d_flags>  (237) 
0

>  <s_epik_input>  (237) 
W0NIM11bQ0BASF0xW0NIMl1bQ0gyXVtDQEhdKFtDQEhdMVtDSDNdKVtDSDJdW0NIMl1bQ0BAXShbQ0gzXSkoW0NIMl1bQ0gyXVtDSDJdMilbQ0BASF0zW0NIMl1bQ0gyXVtDQEhdKFtDQF0yMzQpW0NAXTUoW0NIM10pW0NASF0oW0NIMl1bQ0gyXTQpQyhbQ0gzXSkoW0NIM10pW0NAQEhdKFtPSF0pW0NIMl1bQ0gyXTU=

>  <s_epik_cmdline>  (237) 
J2VwaWtfcHl0aG9uJywgJy1waHQnLCAnMi4wJywgJy1waCcsICc3LjAnLCAnLXRuJywgJzgnLCAnLW1hJywgJzIwMCcsICctaW1hZScsICc8aW5maWxlLm1hZT4nLCAnLW9tYWUnLCAnPG91dGZpbGUubWFlPic=

>  <r_lp_tautomer_probability>  (237) 
1

>  <r_epik_Ionization_Penalty>  (237) 
3.07494e-06

>  <r_epik_Ionization_Penalty_Charging>  (237) 
0

>  <r_epik_Ionization_Penalty_Neutral>  (237) 
3.07494e-06

>  <r_epik_State_Penalty>  (237) 
-0

>  <r_epik_Charging_Adjusted_Penalty>  (237) 
0

>  <i_epik_Tot_Q>  (237) 
0

>  <i_epik_Tot_abs_Q>  (237) 
0

>  <s_lp_Force_Field>  (237) 
OPLS3e

>  <r_lp_Energy>  (237) 
98.8608

>  <b_lp_Chiralities_Consistent>  (237) 
1

>  <s_lp_Variant>  (237) 
70:0-1

>  <s_i_glide_gridfile>  (237) 
pfpi4k_grid

>  <i_i_glide_lignum>  (237) 
16

>  <i_i_glide_rotatable_bonds>  (237) 
4

>  <r_i_docking_score>  (237) 
-2.02654

>  <r_i_glide_ligand_efficiency>  (237) 
-0.0653723

>  <r_i_glide_ligand_efficiency_sa>  (237) 
-0.205359

>  <r_i_glide_ligand_efficiency_ln>  (237) 
-0.457047

>  <r_i_glide_gscore>  (237) 
-2.02654

>  <r_i_glide_lipo>  (237) 
-0.133906

>  <r_i_glide_hbond>  (237) 
-0.16

>  <r_i_glide_metal>  (237) 
-0

>  <r_i_glide_rewards>  (237) 
-0.485909

>  <r_i_glide_evdw>  (237) 
-18.4847

>  <r_i_glide_ecoul>  (237) 
-4.31153

>  <r_i_glide_erotb>  (237) 
0.324238

>  <r_i_glide_esite>  (237) 
0

>  <r_i_glide_emodel>  (237) 
-21.6626

>  <r_i_glide_energy>  (237) 
-22.7962

>  <r_i_glide_einternal>  (237) 
3.3476

>  <r_i_glide_intrahb_reward>  (237) 
-0

>  <i_i_glide_confnum>  (237) 
4

>  <i_i_glide_posenum>  (237) 
36

>  <r_i_glide_eff_state_penalty>  (237) 
0

>  <ligand_id>  (237) 
70

>  <original_smiles>  (237) 
CC1CCC(CCC2(C)CCCC34CCC5C(C)(C)C(O)CCC5(C)C3CCC24)C1C

>  <smiles>  (237) 
[H]OC1([H])C([H])([H])C([H])([H])C2(C([H])([H])[H])C([H])(C([H])([H])C([H])([H])C34C([H])([H])C([H])([H])C([H])([H])C(C([H])([H])[H])(C([H])([H])C([H])([H])C5([H])C([H])([H])C([H])([H])C([H])(C([H])([H])[H])C5([H])C([H])([H])[H])C3([H])C([H])([H])C([H])([H])C24[H])C1(C([H])([H])[H])C([H])([H])[H]

$$$$
71:0:0
     RDKit          3D

 52 57  0  0  1  0  0  0  0  0999 V2000
    5.4003   -2.9043    4.1070 C   0  0  0  0  0  0  0  0  0  0  0  0
    5.3820   -2.0994    2.9231 O   0  0  0  0  0  0  0  0  0  0  0  0
    4.8950   -2.6861    1.6993 C   0  0  2  0  0  0  0  0  0  0  0  0
    6.1428   -3.2889    0.9886 C   0  0  1  0  0  0  0  0  0  0  0  0
    5.8511   -4.2671    0.0027 O   0  0  0  0  0  0  0  0  0  0  0  0
    6.8289   -2.0293    0.3770 C   0  0  1  0  0  0  0  0  0  0  0  0
    7.6989   -2.2650   -0.7189 O   0  0  0  0  0  0  0  0  0  0  0  0
    5.7611   -0.9319    0.1247 C   0  0  1  0  0  0  0  0  0  0  0  0
    5.4302   -0.6789   -1.2596 O   0  0  0  0  0  0  0  0  0  0  0  0
    4.3583   -1.4550   -1.5779 C   0  0  0  0  0  0  0  0  0  0  0  0
    3.7777   -1.7259   -2.8384 C   0  0  0  0  0  0  0  0  0  0  0  0
    4.2066   -1.0681   -3.9518 O   0  0  0  0  0  0  0  0  0  0  0  0
    2.7534   -2.7007   -2.9377 C   0  0  0  0  0  0  0  0  0  0  0  0
    2.3513   -3.4563   -1.8087 C   0  0  0  0  0  0  0  0  0  0  0  0
    2.9229   -3.1761   -0.5513 C   0  0  0  0  0  0  0  0  0  0  0  0
    3.8314   -2.1122   -0.4963 C   0  0  0  0  0  0  0  0  0  0  0  0
    4.4944   -1.5636    0.7426 C   0  0  1  0  0  0  0  0  0  0  0  0
    3.5609   -0.5813    1.4825 C   0  0  0  0  0  0  0  0  0  0  0  0
    2.3075   -1.3035    2.0253 C   0  0  0  0  0  0  0  0  0  0  0  0
    2.6458   -2.5709    2.7348 N   0  0  1  0  0  0  0  0  0  0  0  0
    1.4602   -3.2545    3.3293 C   0  0  0  0  0  0  0  0  0  0  0  0
    1.4390   -3.1495    4.8360 C   0  0  0  0  0  0  0  0  0  0  0  0
    1.8920   -4.3228    5.6780 C   0  0  0  0  0  0  0  0  0  0  0  0
    0.4300   -3.9688    5.6168 C   0  0  0  0  0  0  0  0  0  0  0  0
    3.5695   -3.4776    1.9741 C   0  0  1  0  0  0  0  0  0  0  0  0
    2.8635   -4.0336    0.7073 C   0  0  0  0  0  0  0  0  0  0  0  0
    5.9206   -2.3878    4.9095 H   0  0  0  0  0  0  0  0  0  0  0  0
    5.8337   -3.8924    3.9476 H   0  0  0  0  0  0  0  0  0  0  0  0
    4.4069   -3.0530    4.5187 H   0  0  0  0  0  0  0  0  0  0  0  0
    6.8124   -3.7794    1.6952 H   0  0  0  0  0  0  0  0  0  0  0  0
    5.2570   -3.8984   -0.6377 H   0  0  0  0  0  0  0  0  0  0  0  0
    7.4580   -1.6240    1.1643 H   0  0  0  0  0  0  0  0  0  0  0  0
    8.4219   -2.8050   -0.4369 H   0  0  0  0  0  0  0  0  0  0  0  0
    6.0511    0.0022    0.6096 H   0  0  0  0  0  0  0  0  0  0  0  0
    3.5384   -1.0584   -4.6200 H   0  0  0  0  0  0  0  0  0  0  0  0
    2.3166   -2.9451   -3.8949 H   0  0  0  0  0  0  0  0  0  0  0  0
    1.6549   -4.2715   -1.9257 H   0  0  0  0  0  0  0  0  0  0  0  0
    4.0953   -0.1163    2.3117 H   0  0  0  0  0  0  0  0  0  0  0  0
    3.2610    0.2418    0.8372 H   0  0  0  0  0  0  0  0  0  0  0  0
    1.7643   -0.6416    2.6971 H   0  0  0  0  0  0  0  0  0  0  0  0
    1.6248   -1.5274    1.2152 H   0  0  0  0  0  0  0  0  0  0  0  0
    0.5418   -2.8242    2.9396 H   0  0  0  0  0  0  0  0  0  0  0  0
    1.4317   -4.3132    3.0716 H   0  0  0  0  0  0  0  0  0  0  0  0
    1.6077   -2.1479    5.2316 H   0  0  0  0  0  0  0  0  0  0  0  0
    2.2174   -5.2206    5.1547 H   0  0  0  0  0  0  0  0  0  0  0  0
    2.4239   -4.0991    6.6001 H   0  0  0  0  0  0  0  0  0  0  0  0
    0.0025   -3.5433    6.5218 H   0  0  0  0  0  0  0  0  0  0  0  0
   -0.2222   -4.6494    5.0742 H   0  0  0  0  0  0  0  0  0  0  0  0
    3.7805   -4.3317    2.6161 H   0  0  0  0  0  0  0  0  0  0  0  0
    1.8216   -4.2827    0.9108 H   0  0  0  0  0  0  0  0  0  0  0  0
    3.3383   -4.9837    0.4699 H   0  0  0  0  0  0  0  0  0  0  0  0
    3.1962   -2.2602    3.5269 H   0  0  0  0  0  0  0  0  0  0  0  0
  1  2  1  0
  1 27  1  0
  1 28  1  0
  1 29  1  0
  3  2  1  1
  3 17  1  0
  3 25  1  0
  3  4  1  0
  4  5  1  0
  4  6  1  0
  4 30  1  1
  5 31  1  0
  6  7  1  0
  6  8  1  0
  6 32  1  1
  7 33  1  0
  8 17  1  0
  8  9  1  0
  8 34  1  1
  9 10  1  0
 10 16  2  0
 10 11  1  0
 11 12  1  0
 11 13  2  0
 12 35  1  0
 13 14  1  0
 13 36  1  0
 14 15  2  0
 14 37  1  0
 15 26  1  0
 15 16  1  0
 16 17  1  0
 17 18  1  1
 18 19  1  0
 18 38  1  0
 18 39  1  0
 19 20  1  0
 19 40  1  0
 19 41  1  0
 20 21  1  0
 20 25  1  0
 20 52  1  1
 21 22  1  0
 21 42  1  0
 21 43  1  0
 22 24  1  0
 22 23  1  0
 22 44  1  0
 23 24  1  0
 23 45  1  0
 23 46  1  0
 24 47  1  0
 24 48  1  0
 25 26  1  0
 25 49  1  1
 26 50  1  0
 26 51  1  0
M  CHG  1  20   1
M  END
>  <i_m_ct_stereo_status>  (238) 
1

>  <s_m_source_file>  (238) 
/var/tmp/pbs.5076255.sched01/tmpavn81tjv/78c0r2i372.sdf

>  <i_m_source_file_index>  (238) 
17

>  <i_lp_mmshare_version>  (238) 
48012

>  <i_f3d_flags>  (238) 
0

>  <s_epik_input>  (238) 
W0NIMl0xW0NIMl1bQ0hdMVtDSDJdTihbQ0gyXVtDSDJdMilbQ0BIXShbQ0BAXTMoW0NAQF0yNDUpT1tDSDNdKVtDSDJdYzZjNWMoYyhbT0hdKVtjSF1bY0hdNilPW0NAQEhdNFtDQEhdKFtPSF0pW0NAQEhdM1tPSF0=

>  <s_epik_cmdline>  (238) 
J2VwaWtfcHl0aG9uJywgJy1waHQnLCAnMi4wJywgJy1waCcsICc3LjAnLCAnLXRuJywgJzgnLCAnLW1hJywgJzIwMCcsICctaW1hZScsICc8aW5maWxlLm1hZT4nLCAnLW9tYWUnLCAnPG91dGZpbGUubWFlPic=

>  <r_lp_tautomer_probability>  (238) 
1

>  <r_epik_Ionization_Penalty>  (238) 
0.231507

>  <r_epik_Ionization_Penalty_Charging>  (238) 
0.220573

>  <r_epik_Ionization_Penalty_Neutral>  (238) 
0.0109336

>  <r_epik_State_Penalty>  (238) 
0.300847

>  <r_epik_Charging_Adjusted_Penalty>  (238) 
0.52142

>  <i_epik_Tot_Q>  (238) 
1

>  <i_epik_Tot_abs_Q>  (238) 
1

>  <s_lp_Force_Field>  (238) 
OPLS3e

>  <r_lp_Energy>  (238) 
71.3258

>  <b_lp_Chiralities_Consistent>  (238) 
1

>  <s_lp_Variant>  (238) 
71:0-1

>  <s_i_glide_gridfile>  (238) 
pfpi4k_grid

>  <i_i_glide_lignum>  (238) 
17

>  <i_i_glide_rotatable_bonds>  (238) 
6

>  <r_i_docking_score>  (238) 
-3.30976

>  <r_i_glide_ligand_efficiency>  (238) 
-0.127299

>  <r_i_glide_ligand_efficiency_sa>  (238) 
-0.377121

>  <r_i_glide_ligand_efficiency_ln>  (238) 
-0.777287

>  <r_i_glide_gscore>  (238) 
-3.30976

>  <r_i_glide_lipo>  (238) 
-0.434337

>  <r_i_glide_hbond>  (238) 
-0.0073715

>  <r_i_glide_metal>  (238) 
-0

>  <r_i_glide_rewards>  (238) 
-0.951654

>  <r_i_glide_evdw>  (238) 
-24.1641

>  <r_i_glide_ecoul>  (238) 
-6.67023

>  <r_i_glide_erotb>  (238) 
0.295273

>  <r_i_glide_esite>  (238) 
-0.00293218

>  <r_i_glide_emodel>  (238) 
-36.6179

>  <r_i_glide_energy>  (238) 
-30.8344

>  <r_i_glide_einternal>  (238) 
4.43112

>  <r_i_glide_intrahb_reward>  (238) 
-0

>  <i_i_glide_confnum>  (238) 
2

>  <i_i_glide_posenum>  (238) 
2

>  <r_i_glide_eff_state_penalty>  (238) 
0

>  <ligand_id>  (238) 
71

>  <original_smiles>  (238) 
COC12C(O)C(O)C3Oc4c(O)ccc5c4C31CCN(CC1CC1)C2C5

>  <smiles>  (238) 
[H]Oc1c([H])c([H])c2c3c1OC1([H])C([H])(O[H])C([H])(O[H])C4(OC([H])([H])[H])C31C([H])([H])C([H])([H])[N+]([H])(C([H])([H])C1([H])C([H])([H])C1([H])[H])C4([H])C2([H])[H]

$$$$
71:0:1
     RDKit          3D

 52 57  0  0  1  0  0  0  0  0999 V2000
    5.3722   -2.4402    4.3150 C   0  0  0  0  0  0  0  0  0  0  0  0
    5.3647   -1.7391    3.0670 O   0  0  0  0  0  0  0  0  0  0  0  0
    4.8828   -2.4213    1.8924 C   0  0  2  0  0  0  0  0  0  0  0  0
    6.1371   -3.0696    1.2315 C   0  0  1  0  0  0  0  0  0  0  0  0
    5.8575   -4.1206    0.3171 O   0  0  0  0  0  0  0  0  0  0  0  0
    6.8241   -1.8527    0.5352 C   0  0  1  0  0  0  0  0  0  0  0  0
    7.6954   -2.1669   -0.5365 O   0  0  0  0  0  0  0  0  0  0  0  0
    5.7495   -0.7949    0.1842 C   0  0  1  0  0  0  0  0  0  0  0  0
    5.4305   -0.6659   -1.2182 O   0  0  0  0  0  0  0  0  0  0  0  0
    4.3605   -1.4555   -1.4742 C   0  0  0  0  0  0  0  0  0  0  0  0
    3.7761   -1.8208   -2.7043 C   0  0  0  0  0  0  0  0  0  0  0  0
    4.2009   -1.2437   -3.8642 O   0  0  0  0  0  0  0  0  0  0  0  0
    2.7534   -2.7980   -2.7336 C   0  0  0  0  0  0  0  0  0  0  0  0
    2.3539   -3.4571   -1.5436 C   0  0  0  0  0  0  0  0  0  0  0  0
    2.9173   -3.0881   -0.3113 C   0  0  0  0  0  0  0  0  0  0  0  0
    3.8276   -2.0260   -0.3399 C   0  0  0  0  0  0  0  0  0  0  0  0
    4.4832   -1.3779    0.8471 C   0  0  1  0  0  0  0  0  0  0  0  0
    3.5404   -0.3454    1.5050 C   0  0  0  0  0  0  0  0  0  0  0  0
    2.2836   -1.0297    2.0731 C   0  0  0  0  0  0  0  0  0  0  0  0
    2.6213   -2.2224    2.9050 N   0  0  1  0  0  0  0  0  0  0  0  0
    1.4511   -2.8605    3.5696 C   0  0  0  0  0  0  0  0  0  0  0  0
    0.8506   -2.0096    4.6733 C   0  0  0  0  0  0  0  0  0  0  0  0
    1.1199   -2.3331    6.1222 C   0  0  0  0  0  0  0  0  0  0  0  0
   -0.2480   -2.5804    5.5449 C   0  0  0  0  0  0  0  0  0  0  0  0
    3.5559   -3.1909    2.2284 C   0  0  1  0  0  0  0  0  0  0  0  0
    2.8639   -3.8512    1.0110 C   0  0  0  0  0  0  0  0  0  0  0  0
    5.8672   -1.8465    5.0799 H   0  0  0  0  0  0  0  0  0  0  0  0
    5.8190   -3.4326    4.2441 H   0  0  0  0  0  0  0  0  0  0  0  0
    4.3736   -2.5651    4.7222 H   0  0  0  0  0  0  0  0  0  0  0  0
    6.8054   -3.5043    1.9724 H   0  0  0  0  0  0  0  0  0  0  0  0
    5.2697   -3.8009   -0.3542 H   0  0  0  0  0  0  0  0  0  0  0  0
    7.4462   -1.3769    1.2888 H   0  0  0  0  0  0  0  0  0  0  0  0
    8.4279   -2.6675   -0.2072 H   0  0  0  0  0  0  0  0  0  0  0  0
    6.0264    0.1761    0.5902 H   0  0  0  0  0  0  0  0  0  0  0  0
    3.5242   -1.2627   -4.5219 H   0  0  0  0  0  0  0  0  0  0  0  0
    2.3231   -3.1252   -3.6681 H   0  0  0  0  0  0  0  0  0  0  0  0
    1.6776   -4.3027   -1.5997 H   0  0  0  0  0  0  0  0  0  0  0  0
    4.0621    0.1799    2.3085 H   0  0  0  0  0  0  0  0  0  0  0  0
    3.2437    0.4284    0.8036 H   0  0  0  0  0  0  0  0  0  0  0  0
    1.7485   -0.2903    2.6607 H   0  0  0  0  0  0  0  0  0  0  0  0
    1.6080   -1.3174    1.2781 H   0  0  0  0  0  0  0  0  0  0  0  0
    0.6581   -3.0687    2.8609 H   0  0  0  0  0  0  0  0  0  0  0  0
    1.7475   -3.8211    3.9943 H   0  0  0  0  0  0  0  0  0  0  0  0
    0.6834   -0.9615    4.4232 H   0  0  0  0  0  0  0  0  0  0  0  0
    1.7517   -3.1956    6.3288 H   0  0  0  0  0  0  0  0  0  0  0  0
    1.2440   -1.4835    6.7911 H   0  0  0  0  0  0  0  0  0  0  0  0
   -1.0412   -1.9055    5.8617 H   0  0  0  0  0  0  0  0  0  0  0  0
   -0.5535   -3.6131    5.3845 H   0  0  0  0  0  0  0  0  0  0  0  0
    3.7763   -3.9938    2.9316 H   0  0  0  0  0  0  0  0  0  0  0  0
    1.8259   -4.1016    1.2341 H   0  0  0  0  0  0  0  0  0  0  0  0
    3.3471   -4.8142    0.8417 H   0  0  0  0  0  0  0  0  0  0  0  0
    3.1762   -1.8520    3.6688 H   0  0  0  0  0  0  0  0  0  0  0  0
  1  2  1  0
  1 27  1  0
  1 28  1  0
  1 29  1  0
  3  2  1  1
  3 17  1  0
  3 25  1  0
  3  4  1  0
  4  5  1  0
  4  6  1  0
  4 30  1  1
  5 31  1  0
  6  7  1  0
  6  8  1  0
  6 32  1  1
  7 33  1  0
  8 17  1  0
  8  9  1  0
  8 34  1  1
  9 10  1  0
 10 16  2  0
 10 11  1  0
 11 12  1  0
 11 13  2  0
 12 35  1  0
 13 14  1  0
 13 36  1  0
 14 15  2  0
 14 37  1  0
 15 26  1  0
 15 16  1  0
 16 17  1  0
 17 18  1  1
 18 19  1  0
 18 38  1  0
 18 39  1  0
 19 20  1  0
 19 40  1  0
 19 41  1  0
 20 21  1  0
 20 25  1  0
 20 52  1  1
 21 22  1  0
 21 42  1  0
 21 43  1  0
 22 24  1  0
 22 23  1  0
 22 44  1  0
 23 24  1  0
 23 45  1  0
 23 46  1  0
 24 47  1  0
 24 48  1  0
 25 26  1  0
 25 49  1  1
 26 50  1  0
 26 51  1  0
M  CHG  1  20   1
M  END
>  <i_m_ct_stereo_status>  (239) 
1

>  <s_m_source_file>  (239) 
/var/tmp/pbs.5076255.sched01/tmpavn81tjv/78c0r2i372.sdf

>  <i_m_source_file_index>  (239) 
17

>  <i_lp_mmshare_version>  (239) 
48012

>  <i_f3d_flags>  (239) 
0

>  <s_epik_input>  (239) 
W0NIMl0xW0NIMl1bQ0hdMVtDSDJdTihbQ0gyXVtDSDJdMilbQ0BIXShbQ0BAXTMoW0NAQF0yNDUpT1tDSDNdKVtDSDJdYzZjNWMoYyhbT0hdKVtjSF1bY0hdNilPW0NAQEhdNFtDQEhdKFtPSF0pW0NAQEhdM1tPSF0=

>  <s_epik_cmdline>  (239) 
J2VwaWtfcHl0aG9uJywgJy1waHQnLCAnMi4wJywgJy1waCcsICc3LjAnLCAnLXRuJywgJzgnLCAnLW1hJywgJzIwMCcsICctaW1hZScsICc8aW5maWxlLm1hZT4nLCAnLW9tYWUnLCAnPG91dGZpbGUubWFlPic=

>  <r_lp_tautomer_probability>  (239) 
1

>  <r_epik_Ionization_Penalty>  (239) 
0.231507

>  <r_epik_Ionization_Penalty_Charging>  (239) 
0.220573

>  <r_epik_Ionization_Penalty_Neutral>  (239) 
0.0109336

>  <r_epik_State_Penalty>  (239) 
0.300847

>  <r_epik_Charging_Adjusted_Penalty>  (239) 
0.52142

>  <i_epik_Tot_Q>  (239) 
1

>  <i_epik_Tot_abs_Q>  (239) 
1

>  <s_lp_Force_Field>  (239) 
OPLS3e

>  <r_lp_Energy>  (239) 
71.3258

>  <b_lp_Chiralities_Consistent>  (239) 
1

>  <s_lp_Variant>  (239) 
71:0-1

>  <s_i_glide_gridfile>  (239) 
pfpi4k_grid

>  <i_i_glide_lignum>  (239) 
17

>  <i_i_glide_rotatable_bonds>  (239) 
6

>  <r_i_docking_score>  (239) 
-3.21972

>  <r_i_glide_ligand_efficiency>  (239) 
-0.123836

>  <r_i_glide_ligand_efficiency_sa>  (239) 
-0.366862

>  <r_i_glide_ligand_efficiency_ln>  (239) 
-0.756142

>  <r_i_glide_gscore>  (239) 
-3.21972

>  <r_i_glide_lipo>  (239) 
-0.400125

>  <r_i_glide_hbond>  (239) 
-0.00667969

>  <r_i_glide_metal>  (239) 
-0

>  <r_i_glide_rewards>  (239) 
-0.951654

>  <r_i_glide_evdw>  (239) 
-23.8264

>  <r_i_glide_ecoul>  (239) 
-6.41375

>  <r_i_glide_erotb>  (239) 
0.295273

>  <r_i_glide_esite>  (239) 
-0.00315787

>  <r_i_glide_emodel>  (239) 
-36.4754

>  <r_i_glide_energy>  (239) 
-30.2401

>  <r_i_glide_einternal>  (239) 
2.90681

>  <r_i_glide_intrahb_reward>  (239) 
-0

>  <i_i_glide_confnum>  (239) 
2

>  <i_i_glide_posenum>  (239) 
12

>  <r_i_glide_eff_state_penalty>  (239) 
0

>  <ligand_id>  (239) 
71

>  <original_smiles>  (239) 
COC12C(O)C(O)C3Oc4c(O)ccc5c4C31CCN(CC1CC1)C2C5

>  <smiles>  (239) 
[H]Oc1c([H])c([H])c2c3c1OC1([H])C([H])(O[H])C([H])(O[H])C4(OC([H])([H])[H])C31C([H])([H])C([H])([H])[N+]([H])(C([H])([H])C1([H])C([H])([H])C1([H])[H])C4([H])C2([H])[H]

$$$$
71:0:2
     RDKit          3D

 52 57  0  0  1  0  0  0  0  0999 V2000
    5.6197   -4.0706    3.9290 C   0  0  0  0  0  0  0  0  0  0  0  0
    5.3649   -2.9984    3.0196 O   0  0  0  0  0  0  0  0  0  0  0  0
    4.8735   -3.3233    1.7064 C   0  0  2  0  0  0  0  0  0  0  0  0
    6.1227   -3.6807    0.8520 C   0  0  1  0  0  0  0  0  0  0  0  0
    5.8268   -4.4480   -0.3012 O   0  0  0  0  0  0  0  0  0  0  0  0
    6.7166   -2.2805    0.5042 C   0  0  1  0  0  0  0  0  0  0  0  0
    7.5625   -2.2292   -0.6322 O   0  0  0  0  0  0  0  0  0  0  0  0
    5.5922   -1.2148    0.5416 C   0  0  1  0  0  0  0  0  0  0  0  0
    5.2164   -0.6837   -0.7476 O   0  0  0  0  0  0  0  0  0  0  0  0
    4.1735   -1.4337   -1.2088 C   0  0  0  0  0  0  0  0  0  0  0  0
    3.5733   -1.4742   -2.4850 C   0  0  0  0  0  0  0  0  0  0  0  0
    3.8990   -0.5489   -3.4344 O   0  0  0  0  0  0  0  0  0  0  0  0
    2.6141   -2.4716   -2.7842 C   0  0  0  0  0  0  0  0  0  0  0  0
    2.2716   -3.4554   -1.8341 C   0  0  0  0  0  0  0  0  0  0  0  0
    2.8542   -3.4212   -0.5477 C   0  0  0  0  0  0  0  0  0  0  0  0
    3.7093   -2.3459   -0.2839 C   0  0  0  0  0  0  0  0  0  0  0  0
    4.3829   -2.0425    1.0312 C   0  0  1  0  0  0  0  0  0  0  0  0
    3.4176   -1.3098    1.9833 C   0  0  0  0  0  0  0  0  0  0  0  0
    2.2252   -2.2053    2.3683 C   0  0  0  0  0  0  0  0  0  0  0  0
    2.6639   -3.5697    2.7978 N   0  0  1  0  0  0  0  0  0  0  0  0
    1.5496   -4.4447    3.2613 C   0  0  0  0  0  0  0  0  0  0  0  0
    1.0726   -4.0985    4.6524 C   0  0  0  0  0  0  0  0  0  0  0  0
    1.5572   -4.9037    5.8333 C   0  0  0  0  0  0  0  0  0  0  0  0
    0.1288   -5.0377    5.3767 C   0  0  0  0  0  0  0  0  0  0  0  0
    3.6040   -4.2357    1.8328 C   0  0  1  0  0  0  0  0  0  0  0  0
    2.8765   -4.5383    0.4912 C   0  0  0  0  0  0  0  0  0  0  0  0
    6.1425   -3.6805    4.8017 H   0  0  0  0  0  0  0  0  0  0  0  0
    6.2235   -4.8701    3.4975 H   0  0  0  0  0  0  0  0  0  0  0  0
    4.6981   -4.5063    4.3098 H   0  0  0  0  0  0  0  0  0  0  0  0
    6.8549   -4.2675    1.4071 H   0  0  0  0  0  0  0  0  0  0  0  0
    5.1780   -3.9905   -0.8193 H   0  0  0  0  0  0  0  0  0  0  0  0
    7.3648   -2.0156    1.3286 H   0  0  0  0  0  0  0  0  0  0  0  0
    8.3142   -2.7861   -0.4835 H   0  0  0  0  0  0  0  0  0  0  0  0
    5.8481   -0.3979    1.2196 H   0  0  0  0  0  0  0  0  0  0  0  0
    4.2024    0.2534   -3.0387 H   0  0  0  0  0  0  0  0  0  0  0  0
    2.1650   -2.5072   -3.7646 H   0  0  0  0  0  0  0  0  0  0  0  0
    1.5992   -4.2507   -2.1179 H   0  0  0  0  0  0  0  0  0  0  0  0
    3.9486   -1.0109    2.8875 H   0  0  0  0  0  0  0  0  0  0  0  0
    3.0539   -0.3873    1.5383 H   0  0  0  0  0  0  0  0  0  0  0  0
    1.6706   -1.7288    3.1696 H   0  0  0  0  0  0  0  0  0  0  0  0
    1.5347   -2.2622    1.5300 H   0  0  0  0  0  0  0  0  0  0  0  0
    0.7048   -4.3789    2.5884 H   0  0  0  0  0  0  0  0  0  0  0  0
    1.8537   -5.4900    3.2492 H   0  0  0  0  0  0  0  0  0  0  0  0
    0.8505   -3.0451    4.8236 H   0  0  0  0  0  0  0  0  0  0  0  0
    2.2376   -5.7279    5.6256 H   0  0  0  0  0  0  0  0  0  0  0  0
    1.7434   -4.3598    6.7571 H   0  0  0  0  0  0  0  0  0  0  0  0
   -0.6246   -4.6096    6.0348 H   0  0  0  0  0  0  0  0  0  0  0  0
   -0.1604   -5.9673    4.8890 H   0  0  0  0  0  0  0  0  0  0  0  0
    3.8897   -5.1947    2.2607 H   0  0  0  0  0  0  0  0  0  0  0  0
    1.8652   -4.9005    0.6608 H   0  0  0  0  0  0  0  0  0  0  0  0
    3.3899   -5.3838    0.0355 H   0  0  0  0  0  0  0  0  0  0  0  0
    3.2312   -3.4170    3.6260 H   0  0  0  0  0  0  0  0  0  0  0  0
  1  2  1  0
  1 27  1  0
  1 28  1  0
  1 29  1  0
  3  2  1  1
  3 17  1  0
  3 25  1  0
  3  4  1  0
  4  5  1  0
  4  6  1  0
  4 30  1  1
  5 31  1  0
  6  7  1  0
  6  8  1  0
  6 32  1  1
  7 33  1  0
  8 17  1  0
  8  9  1  0
  8 34  1  1
  9 10  1  0
 10 16  2  0
 10 11  1  0
 11 12  1  0
 11 13  2  0
 12 35  1  0
 13 14  1  0
 13 36  1  0
 14 15  2  0
 14 37  1  0
 15 26  1  0
 15 16  1  0
 16 17  1  0
 17 18  1  1
 18 19  1  0
 18 38  1  0
 18 39  1  0
 19 20  1  0
 19 40  1  0
 19 41  1  0
 20 21  1  0
 20 25  1  0
 20 52  1  1
 21 22  1  0
 21 42  1  0
 21 43  1  0
 22 24  1  0
 22 23  1  0
 22 44  1  0
 23 24  1  0
 23 45  1  0
 23 46  1  0
 24 47  1  0
 24 48  1  0
 25 26  1  0
 25 49  1  1
 26 50  1  0
 26 51  1  0
M  CHG  1  20   1
M  END
>  <i_m_ct_stereo_status>  (240) 
1

>  <s_m_source_file>  (240) 
/var/tmp/pbs.5076255.sched01/tmpavn81tjv/78c0r2i372.sdf

>  <i_m_source_file_index>  (240) 
17

>  <i_lp_mmshare_version>  (240) 
48012

>  <i_f3d_flags>  (240) 
0

>  <s_epik_input>  (240) 
W0NIMl0xW0NIMl1bQ0hdMVtDSDJdTihbQ0gyXVtDSDJdMilbQ0BIXShbQ0BAXTMoW0NAQF0yNDUpT1tDSDNdKVtDSDJdYzZjNWMoYyhbT0hdKVtjSF1bY0hdNilPW0NAQEhdNFtDQEhdKFtPSF0pW0NAQEhdM1tPSF0=

>  <s_epik_cmdline>  (240) 
J2VwaWtfcHl0aG9uJywgJy1waHQnLCAnMi4wJywgJy1waCcsICc3LjAnLCAnLXRuJywgJzgnLCAnLW1hJywgJzIwMCcsICctaW1hZScsICc8aW5maWxlLm1hZT4nLCAnLW9tYWUnLCAnPG91dGZpbGUubWFlPic=

>  <r_lp_tautomer_probability>  (240) 
1

>  <r_epik_Ionization_Penalty>  (240) 
0.231507

>  <r_epik_Ionization_Penalty_Charging>  (240) 
0.220573

>  <r_epik_Ionization_Penalty_Neutral>  (240) 
0.0109336

>  <r_epik_State_Penalty>  (240) 
0.300847

>  <r_epik_Charging_Adjusted_Penalty>  (240) 
0.52142

>  <i_epik_Tot_Q>  (240) 
1

>  <i_epik_Tot_abs_Q>  (240) 
1

>  <s_lp_Force_Field>  (240) 
OPLS3e

>  <r_lp_Energy>  (240) 
71.3258

>  <b_lp_Chiralities_Consistent>  (240) 
1

>  <s_lp_Variant>  (240) 
71:0-1

>  <s_i_glide_gridfile>  (240) 
pfpi4k_grid

>  <i_i_glide_lignum>  (240) 
17

>  <i_i_glide_rotatable_bonds>  (240) 
6

>  <r_i_docking_score>  (240) 
-3.17141

>  <r_i_glide_ligand_efficiency>  (240) 
-0.121977

>  <r_i_glide_ligand_efficiency_sa>  (240) 
-0.361357

>  <r_i_glide_ligand_efficiency_ln>  (240) 
-0.744795

>  <r_i_glide_gscore>  (240) 
-3.17141

>  <r_i_glide_lipo>  (240) 
-0.479034

>  <r_i_glide_hbond>  (240) 
0

>  <r_i_glide_metal>  (240) 
-0

>  <r_i_glide_rewards>  (240) 
-0.951654

>  <r_i_glide_evdw>  (240) 
-22.0699

>  <r_i_glide_ecoul>  (240) 
-6.20722

>  <r_i_glide_erotb>  (240) 
0.295273

>  <r_i_glide_esite>  (240) 
-0.00141581

>  <r_i_glide_emodel>  (240) 
-35.2503

>  <r_i_glide_energy>  (240) 
-28.2772

>  <r_i_glide_einternal>  (240) 
1.90971

>  <r_i_glide_intrahb_reward>  (240) 
-0

>  <i_i_glide_confnum>  (240) 
2

>  <i_i_glide_posenum>  (240) 
18

>  <r_i_glide_eff_state_penalty>  (240) 
0

>  <ligand_id>  (240) 
71

>  <original_smiles>  (240) 
COC12C(O)C(O)C3Oc4c(O)ccc5c4C31CCN(CC1CC1)C2C5

>  <smiles>  (240) 
[H]Oc1c([H])c([H])c2c3c1OC1([H])C([H])(O[H])C([H])(O[H])C4(OC([H])([H])[H])C31C([H])([H])C([H])([H])[N+]([H])(C([H])([H])C1([H])C([H])([H])C1([H])[H])C4([H])C2([H])[H]

$$$$
71:1:0
     RDKit          3D

 51 56  0  0  1  0  0  0  0  0999 V2000
    7.5874   -8.1531    2.0411 C   0  0  0  0  0  0  0  0  0  0  0  0
    6.2865   -7.8864    1.5211 O   0  0  0  0  0  0  0  0  0  0  0  0
    5.3024   -7.3257    2.4019 C   0  0  2  0  0  0  0  0  0  0  0  0
    4.9291   -8.4630    3.4065 C   0  0  1  0  0  0  0  0  0  0  0  0
    4.2826   -8.0339    4.5909 O   0  0  0  0  0  0  0  0  0  0  0  0
    4.0123   -9.3804    2.5428 C   0  0  1  0  0  0  0  0  0  0  0  0
    3.1641  -10.2553    3.2583 O   0  0  0  0  0  0  0  0  0  0  0  0
    3.3029   -8.5291    1.4550 C   0  0  1  0  0  0  0  0  0  0  0  0
    1.8874   -8.2784    1.6525 O   0  0  0  0  0  0  0  0  0  0  0  0
    1.7732   -7.0942    2.3208 C   0  0  0  0  0  0  0  0  0  0  0  0
    0.6484   -6.5245    2.9532 C   0  0  0  0  0  0  0  0  0  0  0  0
   -0.5857   -7.0761    2.7718 O   0  0  0  0  0  0  0  0  0  0  0  0
    0.8058   -5.3853    3.7774 C   0  0  0  0  0  0  0  0  0  0  0  0
    2.0894   -4.8337    4.0137 C   0  0  0  0  0  0  0  0  0  0  0  0
    3.2101   -5.3604    3.3474 C   0  0  0  0  0  0  0  0  0  0  0  0
    2.9722   -6.4297    2.4672 C   0  0  0  0  0  0  0  0  0  0  0  0
    3.9947   -7.1541    1.6253 C   0  0  1  0  0  0  0  0  0  0  0  0
    4.2824   -6.3814    0.3203 C   0  0  0  0  0  0  0  0  0  0  0  0
    4.8775   -4.9969    0.6362 C   0  0  0  0  0  0  0  0  0  0  0  0
    5.9792   -4.9969    1.6211 N   0  0  0  0  0  0  0  0  0  0  0  0
    7.3214   -5.0831    1.0572 C   0  0  0  0  0  0  0  0  0  0  0  0
    7.7163   -3.8959    0.1911 C   0  0  0  0  0  0  0  0  0  0  0  0
    8.8974   -4.0171   -0.7414 C   0  0  0  0  0  0  0  0  0  0  0  0
    8.9949   -3.1322    0.4719 C   0  0  0  0  0  0  0  0  0  0  0  0
    5.7128   -5.8549    2.8046 C   0  0  1  0  0  0  0  0  0  0  0  0
    4.6774   -5.1143    3.6747 C   0  0  0  0  0  0  0  0  0  0  0  0
    8.2659   -8.2567    1.1940 H   0  0  0  0  0  0  0  0  0  0  0  0
    7.6269   -9.0769    2.6187 H   0  0  0  0  0  0  0  0  0  0  0  0
    7.9901   -7.3514    2.6542 H   0  0  0  0  0  0  0  0  0  0  0  0
    5.7882   -9.0322    3.7562 H   0  0  0  0  0  0  0  0  0  0  0  0
    3.9860   -8.8111    5.0444 H   0  0  0  0  0  0  0  0  0  0  0  0
    4.6876  -10.0372    1.9928 H   0  0  0  0  0  0  0  0  0  0  0  0
    2.8928  -10.9411    2.6615 H   0  0  0  0  0  0  0  0  0  0  0  0
    3.4861   -8.9763    0.4785 H   0  0  0  0  0  0  0  0  0  0  0  0
   -0.5177   -7.9412    2.3891 H   0  0  0  0  0  0  0  0  0  0  0  0
   -0.0486   -4.9690    4.2823 H   0  0  0  0  0  0  0  0  0  0  0  0
    2.2090   -4.0388    4.7350 H   0  0  0  0  0  0  0  0  0  0  0  0
    4.9815   -6.9392   -0.3011 H   0  0  0  0  0  0  0  0  0  0  0  0
    3.3824   -6.2582   -0.2831 H   0  0  0  0  0  0  0  0  0  0  0  0
    5.1898   -4.5506   -0.3071 H   0  0  0  0  0  0  0  0  0  0  0  0
    4.0752   -4.3583    1.0089 H   0  0  0  0  0  0  0  0  0  0  0  0
    8.0476   -5.1411    1.8700 H   0  0  0  0  0  0  0  0  0  0  0  0
    7.4306   -5.9911    0.4665 H   0  0  0  0  0  0  0  0  0  0  0  0
    6.8898   -3.2895   -0.1802 H   0  0  0  0  0  0  0  0  0  0  0  0
    9.4133   -4.9772   -0.7382 H   0  0  0  0  0  0  0  0  0  0  0  0
    8.8030   -3.5428   -1.7169 H   0  0  0  0  0  0  0  0  0  0  0  0
    8.9540   -2.0570    0.3145 H   0  0  0  0  0  0  0  0  0  0  0  0
    9.5966   -3.4648    1.3144 H   0  0  0  0  0  0  0  0  0  0  0  0
    6.6144   -5.8890    3.4151 H   0  0  0  0  0  0  0  0  0  0  0  0
    4.8652   -4.0395    3.6370 H   0  0  0  0  0  0  0  0  0  0  0  0
    4.8260   -5.4094    4.7101 H   0  0  0  0  0  0  0  0  0  0  0  0
  1  2  1  0
  1 27  1  0
  1 28  1  0
  1 29  1  0
  3  2  1  6
  3 17  1  0
  3 25  1  0
  3  4  1  0
  4  5  1  0
  4  6  1  0
  4 30  1  1
  5 31  1  0
  6  7  1  0
  6  8  1  0
  6 32  1  6
  7 33  1  0
  8 17  1  0
  8  9  1  0
  8 34  1  6
  9 10  1  0
 10 16  2  0
 10 11  1  0
 11 12  1  0
 11 13  2  0
 12 35  1  0
 13 14  1  0
 13 36  1  0
 14 15  2  0
 14 37  1  0
 15 26  1  0
 15 16  1  0
 16 17  1  0
 17 18  1  6
 18 19  1  0
 18 38  1  0
 18 39  1  0
 19 20  1  0
 19 40  1  0
 19 41  1  0
 20 21  1  0
 20 25  1  0
 21 22  1  0
 21 42  1  0
 21 43  1  0
 22 24  1  0
 22 23  1  0
 22 44  1  0
 23 24  1  0
 23 45  1  0
 23 46  1  0
 24 47  1  0
 24 48  1  0
 25 26  1  0
 25 49  1  1
 26 50  1  0
 26 51  1  0
M  END
>  <i_m_ct_stereo_status>  (241) 
1

>  <s_m_source_file>  (241) 
/var/tmp/pbs.5076255.sched01/tmpavn81tjv/78c0r2i372.sdf

>  <i_m_source_file_index>  (241) 
18

>  <i_lp_mmshare_version>  (241) 
48012

>  <i_f3d_flags>  (241) 
0

>  <s_epik_input>  (241) 
W0NIMl0xW0NIMl1bQ0hdMVtDSDJdTihbQ0gyXVtDSDJdMilbQ0BIXShbQ0BAXTMoW0NAQF0yNDUpT1tDSDNdKVtDSDJdYzZjNWMoYyhbT0hdKVtjSF1bY0hdNilPW0NAQEhdNFtDQEhdKFtPSF0pW0NAQEhdM1tPSF0=

>  <s_epik_cmdline>  (241) 
J2VwaWtfcHl0aG9uJywgJy1waHQnLCAnMi4wJywgJy1waCcsICc3LjAnLCAnLXRuJywgJzgnLCAnLW1hJywgJzIwMCcsICctaW1hZScsICc8aW5maWxlLm1hZT4nLCAnLW9tYWUnLCAnPG91dGZpbGUubWFlPic=

>  <r_lp_tautomer_probability>  (241) 
1

>  <r_epik_Ionization_Penalty>  (241) 
0.694306

>  <r_epik_Ionization_Penalty_Charging>  (241) 
0

>  <r_epik_Ionization_Penalty_Neutral>  (241) 
0.694306

>  <r_epik_State_Penalty>  (241) 
0.555937

>  <r_epik_Charging_Adjusted_Penalty>  (241) 
0.555937

>  <i_epik_Tot_Q>  (241) 
0

>  <i_epik_Tot_abs_Q>  (241) 
0

>  <s_lp_Force_Field>  (241) 
OPLS3e

>  <r_lp_Energy>  (241) 
79.9936

>  <b_lp_Chiralities_Consistent>  (241) 
1

>  <s_lp_Variant>  (241) 
71:0-2

>  <s_i_glide_gridfile>  (241) 
pfpi4k_grid

>  <i_i_glide_lignum>  (241) 
18

>  <i_i_glide_rotatable_bonds>  (241) 
6

>  <r_i_docking_score>  (241) 
-2.96251

>  <r_i_glide_ligand_efficiency>  (241) 
-0.113943

>  <r_i_glide_ligand_efficiency_sa>  (241) 
-0.337554

>  <r_i_glide_ligand_efficiency_ln>  (241) 
-0.695735

>  <r_i_glide_gscore>  (241) 
-2.96251

>  <r_i_glide_lipo>  (241) 
-0.669827

>  <r_i_glide_hbond>  (241) 
0

>  <r_i_glide_metal>  (241) 
-0

>  <r_i_glide_rewards>  (241) 
-0.958526

>  <r_i_glide_evdw>  (241) 
-22.1602

>  <r_i_glide_ecoul>  (241) 
-3.48597

>  <r_i_glide_erotb>  (241) 
0.296751

>  <r_i_glide_esite>  (241) 
0

>  <r_i_glide_emodel>  (241) 
-30.4756

>  <r_i_glide_energy>  (241) 
-25.6461

>  <r_i_glide_einternal>  (241) 
1.63792

>  <r_i_glide_intrahb_reward>  (241) 
-0

>  <i_i_glide_confnum>  (241) 
3

>  <i_i_glide_posenum>  (241) 
1

>  <r_i_glide_eff_state_penalty>  (241) 
0

>  <ligand_id>  (241) 
71

>  <original_smiles>  (241) 
COC12C(O)C(O)C3Oc4c(O)ccc5c4C31CCN(CC1CC1)C2C5

>  <smiles>  (241) 
[H]Oc1c([H])c([H])c2c3c1OC1([H])C([H])(O[H])C([H])(O[H])C4(OC([H])([H])[H])C([H])(N(C([H])([H])C5([H])C([H])([H])C5([H])[H])C([H])([H])C([H])([H])C314)C2([H])[H]

$$$$
71:1:1
     RDKit          3D

 51 56  0  0  1  0  0  0  0  0999 V2000
    5.4610   -3.3277    3.7411 C   0  0  0  0  0  0  0  0  0  0  0  0
    5.3513   -2.3960    2.6542 O   0  0  0  0  0  0  0  0  0  0  0  0
    4.8531   -2.8677    1.3935 C   0  0  2  0  0  0  0  0  0  0  0  0
    6.1005   -3.4333    0.6392 C   0  0  1  0  0  0  0  0  0  0  0  0
    5.8117   -4.2926   -0.4519 O   0  0  0  0  0  0  0  0  0  0  0  0
    6.7976   -2.1391    0.1136 C   0  0  1  0  0  0  0  0  0  0  0  0
    7.6702   -2.2715   -0.9923 O   0  0  0  0  0  0  0  0  0  0  0  0
    5.7386   -1.0170   -0.0789 C   0  0  1  0  0  0  0  0  0  0  0  0
    5.4186   -0.6852   -1.4546 O   0  0  0  0  0  0  0  0  0  0  0  0
    4.3504   -1.4296   -1.8371 C   0  0  0  0  0  0  0  0  0  0  0  0
    3.7739   -1.6425   -3.1050 C   0  0  0  0  0  0  0  0  0  0  0  0
    4.1954   -0.9168   -4.1847 O   0  0  0  0  0  0  0  0  0  0  0  0
    2.7590   -2.6202   -3.2723 C   0  0  0  0  0  0  0  0  0  0  0  0
    2.3493   -3.4202   -2.1832 C   0  0  0  0  0  0  0  0  0  0  0  0
    2.9017   -3.2061   -0.9116 C   0  0  0  0  0  0  0  0  0  0  0  0
    3.8092   -2.1470   -0.7810 C   0  0  0  0  0  0  0  0  0  0  0  0
    4.4721   -1.6753    0.4929 C   0  0  1  0  0  0  0  0  0  0  0  0
    3.5502   -0.7430    1.2930 C   0  0  0  0  0  0  0  0  0  0  0  0
    2.2702   -1.4822    1.7296 C   0  0  0  0  0  0  0  0  0  0  0  0
    2.4663   -2.8109    2.3325 N   0  0  0  0  0  0  0  0  0  0  0  0
    2.5133   -2.8057    3.7865 C   0  0  0  0  0  0  0  0  0  0  0  0
    1.2735   -2.3355    4.5214 C   0  0  0  0  0  0  0  0  0  0  0  0
    1.1676   -2.6697    5.9948 C   0  0  0  0  0  0  0  0  0  0  0  0
    0.2586   -3.3456    4.9983 C   0  0  0  0  0  0  0  0  0  0  0  0
    3.4861   -3.6338    1.6011 C   0  0  1  0  0  0  0  0  0  0  0  0
    2.8504   -4.1378    0.2936 C   0  0  0  0  0  0  0  0  0  0  0  0
    5.6621   -2.7274    4.6422 H   0  0  0  0  0  0  0  0  0  0  0  0
    6.2153   -4.0788    3.5804 H   0  0  0  0  0  0  0  0  0  0  0  0
    4.6249   -3.9526    3.9112 H   0  0  0  0  0  0  0  0  0  0  0  0
    6.7593   -3.9885    1.3102 H   0  0  0  0  0  0  0  0  0  0  0  0
    5.3423   -5.0476   -0.1391 H   0  0  0  0  0  0  0  0  0  0  0  0
    7.4199   -1.7934    0.9352 H   0  0  0  0  0  0  0  0  0  0  0  0
    8.3871   -2.8625   -0.7632 H   0  0  0  0  0  0  0  0  0  0  0  0
    6.0260   -0.1251    0.4786 H   0  0  0  0  0  0  0  0  0  0  0  0
    3.5236   -0.8849   -4.8433 H   0  0  0  0  0  0  0  0  0  0  0  0
    2.3347   -2.8095   -4.2432 H   0  0  0  0  0  0  0  0  0  0  0  0
    1.6450   -4.2366   -2.3494 H   0  0  0  0  0  0  0  0  0  0  0  0
    4.0601   -0.3762    2.1704 H   0  0  0  0  0  0  0  0  0  0  0  0
    3.2748    0.1369    0.7147 H   0  0  0  0  0  0  0  0  0  0  0  0
    1.6917   -0.8147    2.3734 H   0  0  0  0  0  0  0  0  0  0  0  0
    1.6367   -1.6434    0.8886 H   0  0  0  0  0  0  0  0  0  0  0  0
    2.7033   -3.8316    4.1262 H   0  0  0  0  0  0  0  0  0  0  0  0
    3.3276   -2.1619    4.1371 H   0  0  0  0  0  0  0  0  0  0  0  0
    0.9463   -1.3119    4.3012 H   0  0  0  0  0  0  0  0  0  0  0  0
    1.9691   -3.2603    6.4462 H   0  0  0  0  0  0  0  0  0  0  0  0
    0.7514   -1.8917    6.6345 H   0  0  0  0  0  0  0  0  0  0  0  0
   -0.7712   -3.0104    4.8861 H   0  0  0  0  0  0  0  0  0  0  0  0
    0.4646   -4.3822    4.7207 H   0  0  0  0  0  0  0  0  0  0  0  0
    3.6553   -4.5537    2.1694 H   0  0  0  0  0  0  0  0  0  0  0  0
    1.8248   -4.3949    0.5198 H   0  0  0  0  0  0  0  0  0  0  0  0
    3.3151   -5.0824    0.0084 H   0  0  0  0  0  0  0  0  0  0  0  0
  1  2  1  0
  1 27  1  0
  1 28  1  0
  1 29  1  0
  3  2  1  1
  3 17  1  0
  3 25  1  0
  3  4  1  0
  4  5  1  0
  4  6  1  0
  4 30  1  1
  5 31  1  0
  6  7  1  0
  6  8  1  0
  6 32  1  1
  7 33  1  0
  8 17  1  0
  8  9  1  0
  8 34  1  1
  9 10  1  0
 10 16  2  0
 10 11  1  0
 11 12  1  0
 11 13  2  0
 12 35  1  0
 13 14  1  0
 13 36  1  0
 14 15  2  0
 14 37  1  0
 15 26  1  0
 15 16  1  0
 16 17  1  0
 17 18  1  1
 18 19  1  0
 18 38  1  0
 18 39  1  0
 19 20  1  0
 19 40  1  0
 19 41  1  0
 20 21  1  0
 20 25  1  0
 21 22  1  0
 21 42  1  0
 21 43  1  0
 22 24  1  0
 22 23  1  0
 22 44  1  0
 23 24  1  0
 23 45  1  0
 23 46  1  0
 24 47  1  0
 24 48  1  0
 25 26  1  0
 25 49  1  1
 26 50  1  0
 26 51  1  0
M  END
>  <i_m_ct_stereo_status>  (242) 
1

>  <s_m_source_file>  (242) 
/var/tmp/pbs.5076255.sched01/tmpavn81tjv/78c0r2i372.sdf

>  <i_m_source_file_index>  (242) 
18

>  <i_lp_mmshare_version>  (242) 
48012

>  <i_f3d_flags>  (242) 
0

>  <s_epik_input>  (242) 
W0NIMl0xW0NIMl1bQ0hdMVtDSDJdTihbQ0gyXVtDSDJdMilbQ0BIXShbQ0BAXTMoW0NAQF0yNDUpT1tDSDNdKVtDSDJdYzZjNWMoYyhbT0hdKVtjSF1bY0hdNilPW0NAQEhdNFtDQEhdKFtPSF0pW0NAQEhdM1tPSF0=

>  <s_epik_cmdline>  (242) 
J2VwaWtfcHl0aG9uJywgJy1waHQnLCAnMi4wJywgJy1waCcsICc3LjAnLCAnLXRuJywgJzgnLCAnLW1hJywgJzIwMCcsICctaW1hZScsICc8aW5maWxlLm1hZT4nLCAnLW9tYWUnLCAnPG91dGZpbGUubWFlPic=

>  <r_lp_tautomer_probability>  (242) 
1

>  <r_epik_Ionization_Penalty>  (242) 
0.694306

>  <r_epik_Ionization_Penalty_Charging>  (242) 
0

>  <r_epik_Ionization_Penalty_Neutral>  (242) 
0.694306

>  <r_epik_State_Penalty>  (242) 
0.555937

>  <r_epik_Charging_Adjusted_Penalty>  (242) 
0.555937

>  <i_epik_Tot_Q>  (242) 
0

>  <i_epik_Tot_abs_Q>  (242) 
0

>  <s_lp_Force_Field>  (242) 
OPLS3e

>  <r_lp_Energy>  (242) 
79.9936

>  <b_lp_Chiralities_Consistent>  (242) 
1

>  <s_lp_Variant>  (242) 
71:0-2

>  <s_i_glide_gridfile>  (242) 
pfpi4k_grid

>  <i_i_glide_lignum>  (242) 
18

>  <i_i_glide_rotatable_bonds>  (242) 
6

>  <r_i_docking_score>  (242) 
-2.8807

>  <r_i_glide_ligand_efficiency>  (242) 
-0.110796

>  <r_i_glide_ligand_efficiency_sa>  (242) 
-0.328233

>  <r_i_glide_ligand_efficiency_ln>  (242) 
-0.676522

>  <r_i_glide_gscore>  (242) 
-2.8807

>  <r_i_glide_lipo>  (242) 
-0.501996

>  <r_i_glide_hbond>  (242) 
-0.00818401

>  <r_i_glide_metal>  (242) 
-0

>  <r_i_glide_rewards>  (242) 
-0.958526

>  <r_i_glide_evdw>  (242) 
-23.0465

>  <r_i_glide_ecoul>  (242) 
-3.70943

>  <r_i_glide_erotb>  (242) 
0.296751

>  <r_i_glide_esite>  (242) 
0

>  <r_i_glide_emodel>  (242) 
-28.2899

>  <r_i_glide_energy>  (242) 
-26.756

>  <r_i_glide_einternal>  (242) 
5.04291

>  <r_i_glide_intrahb_reward>  (242) 
-0

>  <i_i_glide_confnum>  (242) 
2

>  <i_i_glide_posenum>  (242) 
19

>  <r_i_glide_eff_state_penalty>  (242) 
0

>  <ligand_id>  (242) 
71

>  <original_smiles>  (242) 
COC12C(O)C(O)C3Oc4c(O)ccc5c4C31CCN(CC1CC1)C2C5

>  <smiles>  (242) 
[H]Oc1c([H])c([H])c2c3c1OC1([H])C([H])(O[H])C([H])(O[H])C4(OC([H])([H])[H])C([H])(N(C([H])([H])C5([H])C([H])([H])C5([H])[H])C([H])([H])C([H])([H])C314)C2([H])[H]

$$$$
71:1:2
     RDKit          3D

 51 56  0  0  1  0  0  0  0  0999 V2000
    5.9346  -10.6747    2.9053 C   0  0  0  0  0  0  0  0  0  0  0  0
    4.7805   -9.9748    2.4463 O   0  0  0  0  0  0  0  0  0  0  0  0
    3.9097   -9.3763    3.4171 C   0  0  2  0  0  0  0  0  0  0  0  0
    3.2556  -10.5522    4.2204 C   0  0  1  0  0  0  0  0  0  0  0  0
    2.6830  -10.1854    5.4641 O   0  0  0  0  0  0  0  0  0  0  0  0
    2.1898  -11.0784    3.2092 C   0  0  1  0  0  0  0  0  0  0  0  0
    1.1392  -11.8516    3.7497 O   0  0  0  0  0  0  0  0  0  0  0  0
    1.7319   -9.9163    2.2840 C   0  0  1  0  0  0  0  0  0  0  0  0
    0.4001   -9.3907    2.5202 O   0  0  0  0  0  0  0  0  0  0  0  0
    0.5249   -8.3414    3.3828 C   0  0  0  0  0  0  0  0  0  0  0  0
   -0.4714   -7.6469    4.1049 C   0  0  0  0  0  0  0  0  0  0  0  0
   -1.7838   -7.8989    3.8526 O   0  0  0  0  0  0  0  0  0  0  0  0
   -0.0943   -6.7140    5.0987 C   0  0  0  0  0  0  0  0  0  0  0  0
    1.2711   -6.5145    5.4263 C   0  0  0  0  0  0  0  0  0  0  0  0
    2.2720   -7.1677    4.6816 C   0  0  0  0  0  0  0  0  0  0  0  0
    1.8330   -7.9980    3.6370 C   0  0  0  0  0  0  0  0  0  0  0  0
    2.7012   -8.7874    2.6842 C   0  0  1  0  0  0  0  0  0  0  0  0
    3.1900   -7.9009    1.5189 C   0  0  0  0  0  0  0  0  0  0  0  0
    4.0557   -6.7513    2.0555 C   0  0  0  0  0  0  0  0  0  0  0  0
    5.1031   -7.1553    3.0179 N   0  0  0  0  0  0  0  0  0  0  0  0
    6.4127   -7.4421    2.4404 C   0  0  0  0  0  0  0  0  0  0  0  0
    7.0622   -6.2651    1.7223 C   0  0  0  0  0  0  0  0  0  0  0  0
    8.2561   -6.5121    0.8322 C   0  0  0  0  0  0  0  0  0  0  0  0
    8.4336   -5.7688    2.1297 C   0  0  0  0  0  0  0  0  0  0  0  0
    4.6228   -8.1165    4.0491 C   0  0  1  0  0  0  0  0  0  0  0  0
    3.7468   -7.3150    5.0389 C   0  0  0  0  0  0  0  0  0  0  0  0
    6.6213  -10.8009    2.0676 H   0  0  0  0  0  0  0  0  0  0  0  0
    5.6984  -11.6755    3.2674 H   0  0  0  0  0  0  0  0  0  0  0  0
    6.4761  -10.1408    3.6837 H   0  0  0  0  0  0  0  0  0  0  0  0
    3.9542  -11.3482    4.4686 H   0  0  0  0  0  0  0  0  0  0  0  0
    2.2606  -10.9501    5.8387 H   0  0  0  0  0  0  0  0  0  0  0  0
    2.7227  -11.7601    2.5478 H   0  0  0  0  0  0  0  0  0  0  0  0
    1.3933  -12.7706    3.6995 H   0  0  0  0  0  0  0  0  0  0  0  0
    1.8653  -10.1884    1.2383 H   0  0  0  0  0  0  0  0  0  0  0  0
   -1.8832   -8.7354    3.4163 H   0  0  0  0  0  0  0  0  0  0  0  0
   -0.8555   -6.2112    5.6684 H   0  0  0  0  0  0  0  0  0  0  0  0
    1.5414   -5.9027    6.2737 H   0  0  0  0  0  0  0  0  0  0  0  0
    3.7723   -8.4907    0.8105 H   0  0  0  0  0  0  0  0  0  0  0  0
    2.3533   -7.4928    0.9507 H   0  0  0  0  0  0  0  0  0  0  0  0
    4.4763   -6.2365    1.1944 H   0  0  0  0  0  0  0  0  0  0  0  0
    3.3986   -6.0271    2.5410 H   0  0  0  0  0  0  0  0  0  0  0  0
    7.0923   -7.7492    3.2384 H   0  0  0  0  0  0  0  0  0  0  0  0
    6.3532   -8.2763    1.7440 H   0  0  0  0  0  0  0  0  0  0  0  0
    6.3795   -5.4881    1.3764 H   0  0  0  0  0  0  0  0  0  0  0  0
    8.6130   -7.5412    0.7668 H   0  0  0  0  0  0  0  0  0  0  0  0
    8.3075   -5.9383   -0.0900 H   0  0  0  0  0  0  0  0  0  0  0  0
    8.5752   -4.6918    2.0818 H   0  0  0  0  0  0  0  0  0  0  0  0
    8.9178   -6.2742    2.9629 H   0  0  0  0  0  0  0  0  0  0  0  0
    5.4787   -8.4510    4.6330 H   0  0  0  0  0  0  0  0  0  0  0  0
    4.1689   -6.3179    5.1769 H   0  0  0  0  0  0  0  0  0  0  0  0
    3.7943   -7.8022    6.0092 H   0  0  0  0  0  0  0  0  0  0  0  0
  1  2  1  0
  1 27  1  0
  1 28  1  0
  1 29  1  0
  3  2  1  6
  3 17  1  0
  3 25  1  0
  3  4  1  0
  4  5  1  0
  4  6  1  0
  4 30  1  1
  5 31  1  0
  6  7  1  0
  6  8  1  0
  6 32  1  6
  7 33  1  0
  8 17  1  0
  8  9  1  0
  8 34  1  6
  9 10  1  0
 10 16  2  0
 10 11  1  0
 11 12  1  0
 11 13  2  0
 12 35  1  0
 13 14  1  0
 13 36  1  0
 14 15  2  0
 14 37  1  0
 15 26  1  0
 15 16  1  0
 16 17  1  0
 17 18  1  6
 18 19  1  0
 18 38  1  0
 18 39  1  0
 19 20  1  0
 19 40  1  0
 19 41  1  0
 20 21  1  0
 20 25  1  0
 21 22  1  0
 21 42  1  0
 21 43  1  0
 22 24  1  0
 22 23  1  0
 22 44  1  0
 23 24  1  0
 23 45  1  0
 23 46  1  0
 24 47  1  0
 24 48  1  0
 25 26  1  0
 25 49  1  1
 26 50  1  0
 26 51  1  0
M  END
>  <i_m_ct_stereo_status>  (243) 
1

>  <s_m_source_file>  (243) 
/var/tmp/pbs.5076255.sched01/tmpavn81tjv/78c0r2i372.sdf

>  <i_m_source_file_index>  (243) 
18

>  <i_lp_mmshare_version>  (243) 
48012

>  <i_f3d_flags>  (243) 
0

>  <s_epik_input>  (243) 
W0NIMl0xW0NIMl1bQ0hdMVtDSDJdTihbQ0gyXVtDSDJdMilbQ0BIXShbQ0BAXTMoW0NAQF0yNDUpT1tDSDNdKVtDSDJdYzZjNWMoYyhbT0hdKVtjSF1bY0hdNilPW0NAQEhdNFtDQEhdKFtPSF0pW0NAQEhdM1tPSF0=

>  <s_epik_cmdline>  (243) 
J2VwaWtfcHl0aG9uJywgJy1waHQnLCAnMi4wJywgJy1waCcsICc3LjAnLCAnLXRuJywgJzgnLCAnLW1hJywgJzIwMCcsICctaW1hZScsICc8aW5maWxlLm1hZT4nLCAnLW9tYWUnLCAnPG91dGZpbGUubWFlPic=

>  <r_lp_tautomer_probability>  (243) 
1

>  <r_epik_Ionization_Penalty>  (243) 
0.694306

>  <r_epik_Ionization_Penalty_Charging>  (243) 
0

>  <r_epik_Ionization_Penalty_Neutral>  (243) 
0.694306

>  <r_epik_State_Penalty>  (243) 
0.555937

>  <r_epik_Charging_Adjusted_Penalty>  (243) 
0.555937

>  <i_epik_Tot_Q>  (243) 
0

>  <i_epik_Tot_abs_Q>  (243) 
0

>  <s_lp_Force_Field>  (243) 
OPLS3e

>  <r_lp_Energy>  (243) 
79.9936

>  <b_lp_Chiralities_Consistent>  (243) 
1

>  <s_lp_Variant>  (243) 
71:0-2

>  <s_i_glide_gridfile>  (243) 
pfpi4k_grid

>  <i_i_glide_lignum>  (243) 
18

>  <i_i_glide_rotatable_bonds>  (243) 
6

>  <r_i_docking_score>  (243) 
-2.73419

>  <r_i_glide_ligand_efficiency>  (243) 
-0.105161

>  <r_i_glide_ligand_efficiency_sa>  (243) 
-0.31154

>  <r_i_glide_ligand_efficiency_ln>  (243) 
-0.642116

>  <r_i_glide_gscore>  (243) 
-2.73419

>  <r_i_glide_lipo>  (243) 
-0.289943

>  <r_i_glide_hbond>  (243) 
0

>  <r_i_glide_metal>  (243) 
-0

>  <r_i_glide_rewards>  (243) 
-0.958526

>  <r_i_glide_evdw>  (243) 
-22.1393

>  <r_i_glide_ecoul>  (243) 
-4.5034

>  <r_i_glide_erotb>  (243) 
0.296751

>  <r_i_glide_esite>  (243) 
0

>  <r_i_glide_emodel>  (243) 
-30.4352

>  <r_i_glide_energy>  (243) 
-26.6427

>  <r_i_glide_einternal>  (243) 
2.2552

>  <r_i_glide_intrahb_reward>  (243) 
-0

>  <i_i_glide_confnum>  (243) 
3

>  <i_i_glide_posenum>  (243) 
8

>  <r_i_glide_eff_state_penalty>  (243) 
0

>  <ligand_id>  (243) 
71

>  <original_smiles>  (243) 
COC12C(O)C(O)C3Oc4c(O)ccc5c4C31CCN(CC1CC1)C2C5

>  <smiles>  (243) 
[H]Oc1c([H])c([H])c2c3c1OC1([H])C([H])(O[H])C([H])(O[H])C4(OC([H])([H])[H])C([H])(N(C([H])([H])C5([H])C([H])([H])C5([H])[H])C([H])([H])C([H])([H])C314)C2([H])[H]

$$$$
72:0:0
     RDKit          3D

 58 63  0  0  1  0  0  0  0  0999 V2000
    6.3972   -4.0019    1.0594 C   0  0  0  0  0  0  0  0  0  0  0  0
    5.6969   -4.6649    2.0824 C   0  0  0  0  0  0  0  0  0  0  0  0
    4.4321   -5.2118    1.7853 C   0  0  0  0  0  0  0  0  0  0  0  0
    3.6167   -5.9070    2.8746 C   0  0  0  0  0  0  0  0  0  0  0  0
    4.2302   -7.2188    3.4636 C   0  0  2  0  0  0  0  0  0  0  0  0
    4.6796   -8.1904    2.3229 C   0  0  2  0  0  0  0  0  0  0  0  0
    3.6021   -8.6218    1.3132 C   0  0  0  0  0  0  0  0  0  0  0  0
    2.6115   -9.6022    1.9359 C   0  0  0  0  0  0  0  0  0  0  0  0
    3.3073  -10.7943    2.4792 N   0  0  2  0  0  0  0  0  0  0  0  0
    2.4438  -11.5842    3.3867 C   0  0  0  0  0  0  0  0  0  0  0  0
    2.6560  -10.9967    4.7820 C   0  0  0  0  0  0  0  0  0  0  0  0
    4.0479  -10.3320    4.7350 C   0  0  2  0  0  0  0  0  0  0  0  0
    4.1317   -8.9010    5.3156 C   0  0  0  0  0  0  0  0  0  0  0  0
    3.3690   -7.8807    4.5226 N   0  0  1  0  0  0  0  0  0  0  0  0
    2.6321   -6.9329    5.4154 C   0  0  0  0  0  0  0  0  0  0  0  0
    1.5091   -7.5892    6.2071 C   0  0  0  0  0  0  0  0  0  0  0  0
    0.1270   -7.6929    5.6062 C   0  0  0  0  0  0  0  0  0  0  0  0
    0.3665   -6.7575    6.7602 C   0  0  0  0  0  0  0  0  0  0  0  0
    4.5246  -10.5058    3.2955 C   0  0  2  0  0  0  0  0  0  0  0  0
    5.4513   -9.4267    2.7463 C   0  0  0  0  0  0  0  0  0  0  0  0
    6.6221   -9.8759    1.8878 C   0  0  0  0  0  0  0  0  0  0  0  0
    6.8709   -9.2964    3.2611 C   0  0  0  0  0  0  0  0  0  0  0  0
    3.9257   -5.0566    0.4808 C   0  0  0  0  0  0  0  0  0  0  0  0
    4.7063   -4.3764   -0.4703 C   0  0  0  0  0  0  0  0  0  0  0  0
    5.9231   -3.8582   -0.1936 N   0  0  0  0  0  0  0  0  0  0  0  0
    7.3682   -3.5693    1.2507 H   0  0  0  0  0  0  0  0  0  0  0  0
    6.1194   -4.7315    3.0745 H   0  0  0  0  0  0  0  0  0  0  0  0
    3.5161   -5.1428    3.6421 H   0  0  0  0  0  0  0  0  0  0  0  0
    2.6170   -6.0991    2.4860 H   0  0  0  0  0  0  0  0  0  0  0  0
    5.1430   -6.8948    3.9610 H   0  0  0  0  0  0  0  0  0  0  0  0
    5.3937   -7.6180    1.7303 H   0  0  0  0  0  0  0  0  0  0  0  0
    3.0813   -7.7540    0.9055 H   0  0  0  0  0  0  0  0  0  0  0  0
    4.0899   -9.1026    0.4629 H   0  0  0  0  0  0  0  0  0  0  0  0
    2.0280   -9.0972    2.6940 H   0  0  0  0  0  0  0  0  0  0  0  0
    1.8966   -9.9147    1.1765 H   0  0  0  0  0  0  0  0  0  0  0  0
    1.3974  -11.6104    3.0804 H   0  0  0  0  0  0  0  0  0  0  0  0
    2.8216  -12.6076    3.3646 H   0  0  0  0  0  0  0  0  0  0  0  0
    1.8806  -10.2617    4.9962 H   0  0  0  0  0  0  0  0  0  0  0  0
    2.5830  -11.7700    5.5528 H   0  0  0  0  0  0  0  0  0  0  0  0
    4.7090  -10.9437    5.3534 H   0  0  0  0  0  0  0  0  0  0  0  0
    3.7771   -8.9667    6.3388 H   0  0  0  0  0  0  0  0  0  0  0  0
    5.1725   -8.6069    5.4344 H   0  0  0  0  0  0  0  0  0  0  0  0
    3.3141   -6.4265    6.0915 H   0  0  0  0  0  0  0  0  0  0  0  0
    2.1291   -6.1519    4.8527 H   0  0  0  0  0  0  0  0  0  0  0  0
    1.8014   -8.3971    6.8790 H   0  0  0  0  0  0  0  0  0  0  0  0
   -0.0315   -7.2509    4.6215 H   0  0  0  0  0  0  0  0  0  0  0  0
   -0.4104   -8.6178    5.7990 H   0  0  0  0  0  0  0  0  0  0  0  0
   -0.0689   -7.0561    7.7111 H   0  0  0  0  0  0  0  0  0  0  0  0
    0.3208   -5.6907    6.5512 H   0  0  0  0  0  0  0  0  0  0  0  0
    5.0799  -11.4392    3.2565 H   0  0  0  0  0  0  0  0  0  0  0  0
    6.8050  -10.9412    1.7566 H   0  0  0  0  0  0  0  0  0  0  0  0
    6.9029   -9.2642    1.0302 H   0  0  0  0  0  0  0  0  0  0  0  0
    7.2931   -8.2936    3.3138 H   0  0  0  0  0  0  0  0  0  0  0  0
    7.1944   -9.9760    4.0465 H   0  0  0  0  0  0  0  0  0  0  0  0
    2.9535   -5.4334    0.1926 H   0  0  0  0  0  0  0  0  0  0  0  0
    4.3538   -4.2440   -1.4803 H   0  0  0  0  0  0  0  0  0  0  0  0
    3.5855  -11.3573    1.7030 H   0  0  0  0  0  0  0  0  0  0  0  0
    2.6422   -8.3726    4.0422 H   0  0  0  0  0  0  0  0  0  0  0  0
  1 25  2  0
  1  2  1  0
  1 26  1  0
  2  3  2  0
  2 27  1  0
  3  4  1  0
  3 23  1  0
  4  5  1  0
  4 28  1  0
  4 29  1  0
  5 14  1  0
  5  6  1  0
  5 30  1  1
  6 20  1  0
  6  7  1  0
  6 31  1  6
  7  8  1  0
  7 32  1  0
  7 33  1  0
  8  9  1  0
  8 34  1  0
  8 35  1  0
  9 19  1  0
  9 10  1  0
  9 57  1  6
 10 11  1  0
 10 36  1  0
 10 37  1  0
 11 12  1  0
 11 38  1  0
 11 39  1  0
 12 13  1  0
 12 19  1  0
 12 40  1  1
 13 14  1  0
 13 41  1  0
 13 42  1  0
 14 15  1  0
 14 58  1  6
 15 16  1  0
 15 43  1  0
 15 44  1  0
 16 18  1  0
 16 17  1  0
 16 45  1  0
 17 18  1  0
 17 46  1  0
 17 47  1  0
 18 48  1  0
 18 49  1  0
 19 20  1  0
 19 50  1  1
 20 22  1  0
 20 21  1  0
 21 22  1  0
 21 51  1  0
 21 52  1  0
 22 53  1  0
 22 54  1  0
 23 24  2  0
 23 55  1  0
 24 25  1  0
 24 56  1  0
M  CHG  2   9   1  14   1
M  END
>  <i_m_ct_stereo_status>  (244) 
1

>  <s_m_source_file>  (244) 
/var/tmp/pbs.5076255.sched01/tmpavn81tjv/78c0r2i372.sdf

>  <i_m_source_file_index>  (244) 
19

>  <i_lp_mmshare_version>  (244) 
48012

>  <i_f3d_flags>  (244) 
0

>  <s_epik_input>  (244) 
W2NIXTFbY0hdbltjSF1bY0hdYzFbQ0gyXVtDQEhdKFtDQEhdMkMzNFtDSDJdW0NIMl00KU4oW0NIMl1bQ0hdNVtDSDJdW0NIMl01KVtDSDJdW0NAQEhdNltDQEhdM04oW0NIMl1bQ0gyXTIpW0NIMl1bQ0gyXTY=

>  <s_epik_cmdline>  (244) 
J2VwaWtfcHl0aG9uJywgJy1waHQnLCAnMi4wJywgJy1waCcsICc3LjAnLCAnLXRuJywgJzgnLCAnLW1hJywgJzIwMCcsICctaW1hZScsICc8aW5maWxlLm1hZT4nLCAnLW9tYWUnLCAnPG91dGZpbGUubWFlPic=

>  <r_epik_Ionization_Penalty>  (244) 
0.0581468

>  <r_epik_Ionization_Penalty_Charging>  (244) 
0.056518

>  <r_epik_Ionization_Penalty_Neutral>  (244) 
0.00162883

>  <r_epik_State_Penalty>  (244) 
0.0527398

>  <r_epik_Charging_Adjusted_Penalty>  (244) 
0.109258

>  <i_epik_Tot_Q>  (244) 
2

>  <i_epik_Tot_abs_Q>  (244) 
2

>  <s_lp_Force_Field>  (244) 
OPLS3e

>  <r_lp_Energy>  (244) 
53.6916

>  <b_lp_Chiralities_Consistent>  (244) 
1

>  <s_lp_Variant>  (244) 
72:0-1

>  <s_i_glide_gridfile>  (244) 
pfpi4k_grid

>  <i_i_glide_lignum>  (244) 
19

>  <i_i_glide_rotatable_bonds>  (244) 
4

>  <r_i_docking_score>  (244) 
-2.93888

>  <r_i_glide_ligand_efficiency>  (244) 
-0.117555

>  <r_i_glide_ligand_efficiency_sa>  (244) 
-0.343733

>  <r_i_glide_ligand_efficiency_ln>  (244) 
-0.696602

>  <r_i_glide_gscore>  (244) 
-2.93888

>  <r_i_glide_lipo>  (244) 
-0.207938

>  <r_i_glide_hbond>  (244) 
-0.2

>  <r_i_glide_metal>  (244) 
-0

>  <r_i_glide_rewards>  (244) 
-1.0942

>  <r_i_glide_evdw>  (244) 
-17.2796

>  <r_i_glide_ecoul>  (244) 
-7.62393

>  <r_i_glide_erotb>  (244) 
0.656731

>  <r_i_glide_esite>  (244) 
-0.085902

>  <r_i_glide_emodel>  (244) 
-31.7611

>  <r_i_glide_energy>  (244) 
-24.9035

>  <r_i_glide_einternal>  (244) 
0.775097

>  <r_i_glide_intrahb_reward>  (244) 
-0

>  <i_i_glide_confnum>  (244) 
2

>  <i_i_glide_posenum>  (244) 
7

>  <r_i_glide_eff_state_penalty>  (244) 
0

>  <ligand_id>  (244) 
72

>  <original_smiles>  (244) 
c1cc(CC2C3CCN4CCC(CN2CC2CC2)C4C32CC2)ccn1

>  <smiles>  (244) 
[H]c1nc([H])c([H])c(C([H])([H])C2([H])C3([H])C([H])([H])C([H])([H])[N+]4([H])C([H])([H])C([H])([H])C([H])(C([H])([H])[N+]2([H])C([H])([H])C2([H])C([H])([H])C2([H])[H])C4([H])C32C([H])([H])C2([H])[H])c1[H]

$$$$
72:0:1
     RDKit          3D

 58 63  0  0  1  0  0  0  0  0999 V2000
    8.5842   -6.3702    3.4486 C   0  0  0  0  0  0  0  0  0  0  0  0
    7.5625   -6.8591    4.2880 C   0  0  0  0  0  0  0  0  0  0  0  0
    6.2263   -6.7798    3.8400 C   0  0  0  0  0  0  0  0  0  0  0  0
    5.0763   -7.3037    4.6986 C   0  0  0  0  0  0  0  0  0  0  0  0
    4.9020   -8.8629    4.7829 C   0  0  2  0  0  0  0  0  0  0  0  0
    5.1490   -9.5406    3.3856 C   0  0  2  0  0  0  0  0  0  0  0  0
    4.2538   -9.0844    2.2174 C   0  0  0  0  0  0  0  0  0  0  0  0
    2.8261   -9.5853    2.3684 C   0  0  0  0  0  0  0  0  0  0  0  0
    2.7999  -11.0558    2.4832 N   0  0  2  0  0  0  0  0  0  0  0  0
    1.4895  -11.5486    2.9604 C   0  0  0  0  0  0  0  0  0  0  0  0
    1.6024  -11.5885    4.4903 C   0  0  0  0  0  0  0  0  0  0  0  0
    3.1124  -11.7228    4.7887 C   0  0  2  0  0  0  0  0  0  0  0  0
    3.6737  -10.7651    5.8708 C   0  0  0  0  0  0  0  0  0  0  0  0
    3.6382   -9.3161    5.4816 N   0  0  1  0  0  0  0  0  0  0  0  0
    3.1869   -8.4430    6.6169 C   0  0  0  0  0  0  0  0  0  0  0  0
    1.7717   -8.7397    7.1081 C   0  0  0  0  0  0  0  0  0  0  0  0
    0.5841   -8.1006    6.4226 C   0  0  0  0  0  0  0  0  0  0  0  0
    0.9517   -7.6827    7.8217 C   0  0  0  0  0  0  0  0  0  0  0  0
    3.7879  -11.6617    3.4137 C   0  0  2  0  0  0  0  0  0  0  0  0
    5.1961  -11.0627    3.3773 C   0  0  0  0  0  0  0  0  0  0  0  0
    6.2267  -11.7425    2.4926 C   0  0  0  0  0  0  0  0  0  0  0  0
    6.3652  -11.7965    3.9953 C   0  0  0  0  0  0  0  0  0  0  0  0
    5.9841   -6.1834    2.5817 C   0  0  0  0  0  0  0  0  0  0  0  0
    7.0804   -5.7582    1.8085 C   0  0  0  0  0  0  0  0  0  0  0  0
    8.3542   -5.8467    2.2256 N   0  0  0  0  0  0  0  0  0  0  0  0
    9.6164   -6.3937    3.7654 H   0  0  0  0  0  0  0  0  0  0  0  0
    7.8044   -7.2695    5.2561 H   0  0  0  0  0  0  0  0  0  0  0  0
    5.2360   -6.9053    5.7003 H   0  0  0  0  0  0  0  0  0  0  0  0
    4.1569   -6.8498    4.3257 H   0  0  0  0  0  0  0  0  0  0  0  0
    5.7326   -9.1905    5.4146 H   0  0  0  0  0  0  0  0  0  0  0  0
    6.1592   -9.2464    3.1066 H   0  0  0  0  0  0  0  0  0  0  0  0
    4.2171   -8.0092    2.1151 H   0  0  0  0  0  0  0  0  0  0  0  0
    4.6732   -9.4797    1.2874 H   0  0  0  0  0  0  0  0  0  0  0  0
    2.3614   -9.1156    3.2345 H   0  0  0  0  0  0  0  0  0  0  0  0
    2.2349   -9.2799    1.5012 H   0  0  0  0  0  0  0  0  0  0  0  0
    0.6406  -10.9570    2.6146 H   0  0  0  0  0  0  0  0  0  0  0  0
    1.3476  -12.5633    2.5771 H   0  0  0  0  0  0  0  0  0  0  0  0
    1.1939  -10.6744    4.9257 H   0  0  0  0  0  0  0  0  0  0  0  0
    1.0250  -12.4231    4.8925 H   0  0  0  0  0  0  0  0  0  0  0  0
    3.2763  -12.7305    5.1726 H   0  0  0  0  0  0  0  0  0  0  0  0
    3.1010  -10.9731    6.7722 H   0  0  0  0  0  0  0  0  0  0  0  0
    4.6876  -11.0630    6.1437 H   0  0  0  0  0  0  0  0  0  0  0  0
    3.8890   -8.5153    7.4486 H   0  0  0  0  0  0  0  0  0  0  0  0
    3.1743   -7.3960    6.3147 H   0  0  0  0  0  0  0  0  0  0  0  0
    1.6131   -9.7394    7.5164 H   0  0  0  0  0  0  0  0  0  0  0  0
    0.7872   -7.3954    5.6141 H   0  0  0  0  0  0  0  0  0  0  0  0
   -0.2847   -8.7385    6.2891 H   0  0  0  0  0  0  0  0  0  0  0  0
    0.2873   -8.0191    8.6134 H   0  0  0  0  0  0  0  0  0  0  0  0
    1.3721   -6.6859    7.9542 H   0  0  0  0  0  0  0  0  0  0  0  0
    3.8796  -12.6946    3.0661 H   0  0  0  0  0  0  0  0  0  0  0  0
    5.9470  -12.6606    1.9799 H   0  0  0  0  0  0  0  0  0  0  0  0
    6.9263  -11.1117    1.9444 H   0  0  0  0  0  0  0  0  0  0  0  0
    7.1523  -11.1950    4.4495 H   0  0  0  0  0  0  0  0  0  0  0  0
    6.1681  -12.7485    4.4866 H   0  0  0  0  0  0  0  0  0  0  0  0
    4.9889   -6.0471    2.1894 H   0  0  0  0  0  0  0  0  0  0  0  0
    6.9194   -5.3343    0.8279 H   0  0  0  0  0  0  0  0  0  0  0  0
    3.0239  -11.4375    1.5638 H   0  0  0  0  0  0  0  0  0  0  0  0
    2.8919   -9.2263    4.8070 H   0  0  0  0  0  0  0  0  0  0  0  0
  1 25  2  0
  1  2  1  0
  1 26  1  0
  2  3  2  0
  2 27  1  0
  3  4  1  0
  3 23  1  0
  4  5  1  0
  4 28  1  0
  4 29  1  0
  5 14  1  0
  5  6  1  0
  5 30  1  1
  6 20  1  0
  6  7  1  0
  6 31  1  6
  7  8  1  0
  7 32  1  0
  7 33  1  0
  8  9  1  0
  8 34  1  0
  8 35  1  0
  9 19  1  0
  9 10  1  0
  9 57  1  6
 10 11  1  0
 10 36  1  0
 10 37  1  0
 11 12  1  0
 11 38  1  0
 11 39  1  0
 12 13  1  0
 12 19  1  0
 12 40  1  1
 13 14  1  0
 13 41  1  0
 13 42  1  0
 14 15  1  0
 14 58  1  6
 15 16  1  0
 15 43  1  0
 15 44  1  0
 16 18  1  0
 16 17  1  0
 16 45  1  0
 17 18  1  0
 17 46  1  0
 17 47  1  0
 18 48  1  0
 18 49  1  0
 19 20  1  0
 19 50  1  6
 20 22  1  0
 20 21  1  0
 21 22  1  0
 21 51  1  0
 21 52  1  0
 22 53  1  0
 22 54  1  0
 23 24  2  0
 23 55  1  0
 24 25  1  0
 24 56  1  0
M  CHG  2   9   1  14   1
M  END
>  <i_m_ct_stereo_status>  (245) 
1

>  <s_m_source_file>  (245) 
/var/tmp/pbs.5076255.sched01/tmpavn81tjv/78c0r2i372.sdf

>  <i_m_source_file_index>  (245) 
19

>  <i_lp_mmshare_version>  (245) 
48012

>  <i_f3d_flags>  (245) 
0

>  <s_epik_input>  (245) 
W2NIXTFbY0hdbltjSF1bY0hdYzFbQ0gyXVtDQEhdKFtDQEhdMkMzNFtDSDJdW0NIMl00KU4oW0NIMl1bQ0hdNVtDSDJdW0NIMl01KVtDSDJdW0NAQEhdNltDQEhdM04oW0NIMl1bQ0gyXTIpW0NIMl1bQ0gyXTY=

>  <s_epik_cmdline>  (245) 
J2VwaWtfcHl0aG9uJywgJy1waHQnLCAnMi4wJywgJy1waCcsICc3LjAnLCAnLXRuJywgJzgnLCAnLW1hJywgJzIwMCcsICctaW1hZScsICc8aW5maWxlLm1hZT4nLCAnLW9tYWUnLCAnPG91dGZpbGUubWFlPic=

>  <r_epik_Ionization_Penalty>  (245) 
0.0581468

>  <r_epik_Ionization_Penalty_Charging>  (245) 
0.056518

>  <r_epik_Ionization_Penalty_Neutral>  (245) 
0.00162883

>  <r_epik_State_Penalty>  (245) 
0.0527398

>  <r_epik_Charging_Adjusted_Penalty>  (245) 
0.109258

>  <i_epik_Tot_Q>  (245) 
2

>  <i_epik_Tot_abs_Q>  (245) 
2

>  <s_lp_Force_Field>  (245) 
OPLS3e

>  <r_lp_Energy>  (245) 
53.6916

>  <b_lp_Chiralities_Consistent>  (245) 
1

>  <s_lp_Variant>  (245) 
72:0-1

>  <s_i_glide_gridfile>  (245) 
pfpi4k_grid

>  <i_i_glide_lignum>  (245) 
19

>  <i_i_glide_rotatable_bonds>  (245) 
4

>  <r_i_docking_score>  (245) 
-2.73128

>  <r_i_glide_ligand_efficiency>  (245) 
-0.109251

>  <r_i_glide_ligand_efficiency_sa>  (245) 
-0.319452

>  <r_i_glide_ligand_efficiency_ln>  (245) 
-0.647395

>  <r_i_glide_gscore>  (245) 
-2.73128

>  <r_i_glide_lipo>  (245) 
-0.165658

>  <r_i_glide_hbond>  (245) 
-0.2

>  <r_i_glide_metal>  (245) 
-0

>  <r_i_glide_rewards>  (245) 
-1.0942

>  <r_i_glide_evdw>  (245) 
-16.5548

>  <r_i_glide_ecoul>  (245) 
-6.8938

>  <r_i_glide_erotb>  (245) 
0.656731

>  <r_i_glide_esite>  (245) 
-0.0663423

>  <r_i_glide_emodel>  (245) 
-29.0169

>  <r_i_glide_energy>  (245) 
-23.4486

>  <r_i_glide_einternal>  (245) 
1.59034

>  <r_i_glide_intrahb_reward>  (245) 
-0

>  <i_i_glide_confnum>  (245) 
2

>  <i_i_glide_posenum>  (245) 
2

>  <r_i_glide_eff_state_penalty>  (245) 
0

>  <ligand_id>  (245) 
72

>  <original_smiles>  (245) 
c1cc(CC2C3CCN4CCC(CN2CC2CC2)C4C32CC2)ccn1

>  <smiles>  (245) 
[H]c1nc([H])c([H])c(C([H])([H])C2([H])C3([H])C([H])([H])C([H])([H])[N+]4([H])C([H])([H])C([H])([H])C([H])(C([H])([H])[N+]2([H])C([H])([H])C2([H])C([H])([H])C2([H])[H])C4([H])C32C([H])([H])C2([H])[H])c1[H]

$$$$
72:0:2
     RDKit          3D

 58 63  0  0  1  0  0  0  0  0999 V2000
    8.0935   -6.6211    2.5836 C   0  0  0  0  0  0  0  0  0  0  0  0
    7.0096   -6.9301    3.4250 C   0  0  0  0  0  0  0  0  0  0  0  0
    5.7125   -6.5608    3.0146 C   0  0  0  0  0  0  0  0  0  0  0  0
    4.5041   -6.8439    3.8990 C   0  0  0  0  0  0  0  0  0  0  0  0
    4.3453   -8.3103    4.4254 C   0  0  2  0  0  0  0  0  0  0  0  0
    4.5506   -9.3431    3.2589 C   0  0  2  0  0  0  0  0  0  0  0  0
    3.6250   -9.2065    2.0370 C   0  0  0  0  0  0  0  0  0  0  0  0
    2.2019   -9.6659    2.3597 C   0  0  0  0  0  0  0  0  0  0  0  0
    2.1904  -11.0617    2.8851 N   0  0  2  0  0  0  0  0  0  0  0  0
    0.9046  -11.4033    3.5152 C   0  0  0  0  0  0  0  0  0  0  0  0
    1.0598  -11.0134    4.9893 C   0  0  0  0  0  0  0  0  0  0  0  0
    2.5807  -11.0498    5.2622 C   0  0  2  0  0  0  0  0  0  0  0  0
    3.1453   -9.8220    6.0218 C   0  0  0  0  0  0  0  0  0  0  0  0
    3.0913   -8.5417    5.2411 N   0  0  1  0  0  0  0  0  0  0  0  0
    2.6757   -7.3951    6.1137 C   0  0  0  0  0  0  0  0  0  0  0  0
    1.2028   -7.4359    6.4949 C   0  0  0  0  0  0  0  0  0  0  0  0
    0.1941   -6.7108    5.6259 C   0  0  0  0  0  0  0  0  0  0  0  0
    0.5100   -6.1826    6.9979 C   0  0  0  0  0  0  0  0  0  0  0  0
    3.2133  -11.3743    3.9054 C   0  0  2  0  0  0  0  0  0  0  0  0
    4.6104  -10.8087    3.6599 C   0  0  0  0  0  0  0  0  0  0  0  0
    5.6237  -11.7073    2.9687 C   0  0  0  0  0  0  0  0  0  0  0  0
    5.8048  -11.3404    4.4239 C   0  0  0  0  0  0  0  0  0  0  0  0
    5.5636   -5.8796    1.7902 C   0  0  0  0  0  0  0  0  0  0  0  0
    6.7144   -5.6105    1.0279 C   0  0  0  0  0  0  0  0  0  0  0  0
    7.9553   -5.9733    1.4086 N   0  0  0  0  0  0  0  0  0  0  0  0
    9.0978   -6.9025    2.8645 H   0  0  0  0  0  0  0  0  0  0  0  0
    7.1827   -7.4332    4.3649 H   0  0  0  0  0  0  0  0  0  0  0  0
    4.6321   -6.1510    4.7273 H   0  0  0  0  0  0  0  0  0  0  0  0
    3.6003   -6.5461    3.3647 H   0  0  0  0  0  0  0  0  0  0  0  0
    5.1826   -8.4564    5.1074 H   0  0  0  0  0  0  0  0  0  0  0  0
    5.5466   -9.1413    2.8669 H   0  0  0  0  0  0  0  0  0  0  0  0
    3.6277   -8.1899    1.6438 H   0  0  0  0  0  0  0  0  0  0  0  0
    4.0178   -9.8381    1.2356 H   0  0  0  0  0  0  0  0  0  0  0  0
    1.7527   -8.9852    3.0783 H   0  0  0  0  0  0  0  0  0  0  0  0
    1.5835   -9.6146    1.4616 H   0  0  0  0  0  0  0  0  0  0  0  0
    0.0426  -10.9290    3.0488 H   0  0  0  0  0  0  0  0  0  0  0  0
    0.7590  -12.4843    3.4461 H   0  0  0  0  0  0  0  0  0  0  0  0
    0.6539  -10.0146    5.1582 H   0  0  0  0  0  0  0  0  0  0  0  0
    0.4964  -11.6909    5.6350 H   0  0  0  0  0  0  0  0  0  0  0  0
    2.7850  -11.9107    5.9001 H   0  0  0  0  0  0  0  0  0  0  0  0
    2.5778   -9.7440    6.9495 H   0  0  0  0  0  0  0  0  0  0  0  0
    4.1606  -10.0358    6.3546 H   0  0  0  0  0  0  0  0  0  0  0  0
    3.2937   -7.3517    7.0106 H   0  0  0  0  0  0  0  0  0  0  0  0
    2.7877   -6.4326    5.6223 H   0  0  0  0  0  0  0  0  0  0  0  0
    0.8653   -8.3572    6.9771 H   0  0  0  0  0  0  0  0  0  0  0  0
    0.5677   -6.1393    4.7736 H   0  0  0  0  0  0  0  0  0  0  0  0
   -0.7608   -7.2040    5.4752 H   0  0  0  0  0  0  0  0  0  0  0  0
   -0.2701   -6.2950    7.7453 H   0  0  0  0  0  0  0  0  0  0  0  0
    1.0667   -5.2470    7.0470 H   0  0  0  0  0  0  0  0  0  0  0  0
    3.3105  -12.4631    3.8659 H   0  0  0  0  0  0  0  0  0  0  0  0
    5.3406  -12.7329    2.7391 H   0  0  0  0  0  0  0  0  0  0  0  0
    6.2997  -11.2530    2.2448 H   0  0  0  0  0  0  0  0  0  0  0  0
    6.6005  -10.6373    4.6669 H   0  0  0  0  0  0  0  0  0  0  0  0
    5.6358  -12.1207    5.1634 H   0  0  0  0  0  0  0  0  0  0  0  0
    4.5970   -5.5492    1.4370 H   0  0  0  0  0  0  0  0  0  0  0  0
    6.6405   -5.0913    0.0848 H   0  0  0  0  0  0  0  0  0  0  0  0
    2.3620  -11.6693    2.0880 H   0  0  0  0  0  0  0  0  0  0  0  0
    2.3349   -8.6430    4.5863 H   0  0  0  0  0  0  0  0  0  0  0  0
  1 25  2  0
  1  2  1  0
  1 26  1  0
  2  3  2  0
  2 27  1  0
  3  4  1  0
  3 23  1  0
  4  5  1  0
  4 28  1  0
  4 29  1  0
  5 14  1  0
  5  6  1  0
  5 30  1  1
  6 20  1  0
  6  7  1  0
  6 31  1  6
  7  8  1  0
  7 32  1  0
  7 33  1  0
  8  9  1  0
  8 34  1  0
  8 35  1  0
  9 19  1  0
  9 10  1  0
  9 57  1  6
 10 11  1  0
 10 36  1  0
 10 37  1  0
 11 12  1  0
 11 38  1  0
 11 39  1  0
 12 13  1  0
 12 19  1  0
 12 40  1  1
 13 14  1  0
 13 41  1  0
 13 42  1  0
 14 15  1  0
 14 58  1  6
 15 16  1  0
 15 43  1  0
 15 44  1  0
 16 18  1  0
 16 17  1  0
 16 45  1  0
 17 18  1  0
 17 46  1  0
 17 47  1  0
 18 48  1  0
 18 49  1  0
 19 20  1  0
 19 50  1  1
 20 22  1  0
 20 21  1  0
 21 22  1  0
 21 51  1  0
 21 52  1  0
 22 53  1  0
 22 54  1  0
 23 24  2  0
 23 55  1  0
 24 25  1  0
 24 56  1  0
M  CHG  2   9   1  14   1
M  END
>  <i_m_ct_stereo_status>  (246) 
1

>  <s_m_source_file>  (246) 
/var/tmp/pbs.5076255.sched01/tmpavn81tjv/78c0r2i372.sdf

>  <i_m_source_file_index>  (246) 
19

>  <i_lp_mmshare_version>  (246) 
48012

>  <i_f3d_flags>  (246) 
0

>  <s_epik_input>  (246) 
W2NIXTFbY0hdbltjSF1bY0hdYzFbQ0gyXVtDQEhdKFtDQEhdMkMzNFtDSDJdW0NIMl00KU4oW0NIMl1bQ0hdNVtDSDJdW0NIMl01KVtDSDJdW0NAQEhdNltDQEhdM04oW0NIMl1bQ0gyXTIpW0NIMl1bQ0gyXTY=

>  <s_epik_cmdline>  (246) 
J2VwaWtfcHl0aG9uJywgJy1waHQnLCAnMi4wJywgJy1waCcsICc3LjAnLCAnLXRuJywgJzgnLCAnLW1hJywgJzIwMCcsICctaW1hZScsICc8aW5maWxlLm1hZT4nLCAnLW9tYWUnLCAnPG91dGZpbGUubWFlPic=

>  <r_epik_Ionization_Penalty>  (246) 
0.0581468

>  <r_epik_Ionization_Penalty_Charging>  (246) 
0.056518

>  <r_epik_Ionization_Penalty_Neutral>  (246) 
0.00162883

>  <r_epik_State_Penalty>  (246) 
0.0527398

>  <r_epik_Charging_Adjusted_Penalty>  (246) 
0.109258

>  <i_epik_Tot_Q>  (246) 
2

>  <i_epik_Tot_abs_Q>  (246) 
2

>  <s_lp_Force_Field>  (246) 
OPLS3e

>  <r_lp_Energy>  (246) 
53.6916

>  <b_lp_Chiralities_Consistent>  (246) 
1

>  <s_lp_Variant>  (246) 
72:0-1

>  <s_i_glide_gridfile>  (246) 
pfpi4k_grid

>  <i_i_glide_lignum>  (246) 
19

>  <i_i_glide_rotatable_bonds>  (246) 
4

>  <r_i_docking_score>  (246) 
-2.58055

>  <r_i_glide_ligand_efficiency>  (246) 
-0.103222

>  <r_i_glide_ligand_efficiency_sa>  (246) 
-0.301823

>  <r_i_glide_ligand_efficiency_ln>  (246) 
-0.611668

>  <r_i_glide_gscore>  (246) 
-2.58055

>  <r_i_glide_lipo>  (246) 
-0.378471

>  <r_i_glide_hbond>  (246) 
0

>  <r_i_glide_metal>  (246) 
-0

>  <r_i_glide_rewards>  (246) 
-1.0942

>  <r_i_glide_evdw>  (246) 
-17.5126

>  <r_i_glide_ecoul>  (246) 
-5.90853

>  <r_i_glide_erotb>  (246) 
0.656731

>  <r_i_glide_esite>  (246) 
-0.0027019

>  <r_i_glide_emodel>  (246) 
-29.1301

>  <r_i_glide_energy>  (246) 
-23.4212

>  <r_i_glide_einternal>  (246) 
1.25402

>  <r_i_glide_intrahb_reward>  (246) 
-0

>  <i_i_glide_confnum>  (246) 
2

>  <i_i_glide_posenum>  (246) 
20

>  <r_i_glide_eff_state_penalty>  (246) 
0

>  <ligand_id>  (246) 
72

>  <original_smiles>  (246) 
c1cc(CC2C3CCN4CCC(CN2CC2CC2)C4C32CC2)ccn1

>  <smiles>  (246) 
[H]c1nc([H])c([H])c(C([H])([H])C2([H])C3([H])C([H])([H])C([H])([H])[N+]4([H])C([H])([H])C([H])([H])C([H])(C([H])([H])[N+]2([H])C([H])([H])C2([H])C([H])([H])C2([H])[H])C4([H])C32C([H])([H])C2([H])[H])c1[H]

$$$$
72:1:0
     RDKit          3D

 57 62  0  0  1  0  0  0  0  0999 V2000
    2.8997   -2.3651   -3.5879 C   0  0  0  0  0  0  0  0  0  0  0  0
    2.4309   -2.9603   -2.4063 C   0  0  0  0  0  0  0  0  0  0  0  0
    3.3596   -3.4487   -1.4602 C   0  0  0  0  0  0  0  0  0  0  0  0
    2.8169   -4.1218   -0.1989 C   0  0  0  0  0  0  0  0  0  0  0  0
    3.8345   -4.6775    0.8625 C   0  0  2  0  0  0  0  0  0  0  0  0
    3.5568   -6.2055    1.0888 C   0  0  2  0  0  0  0  0  0  0  0  0
    2.1365   -6.6050    1.5428 C   0  0  0  0  0  0  0  0  0  0  0  0
    1.8861   -6.1883    2.9934 C   0  0  0  0  0  0  0  0  0  0  0  0
    2.9037   -6.7722    3.9058 N   0  0  2  0  0  0  0  0  0  0  0  0
    2.9048   -6.1194    5.2289 C   0  0  0  0  0  0  0  0  0  0  0  0
    3.8991   -4.9522    5.1159 C   0  0  0  0  0  0  0  0  0  0  0  0
    4.8562   -5.3398    3.9683 C   0  0  2  0  0  0  0  0  0  0  0  0
    5.1068   -4.2389    2.9087 C   0  0  0  0  0  0  0  0  0  0  0  0
    3.9207   -3.8799    2.1118 N   0  0  0  0  0  0  0  0  0  0  0  0
    3.8758   -2.4109    1.9646 C   0  0  0  0  0  0  0  0  0  0  0  0
    5.0727   -1.7824    1.2624 C   0  0  0  0  0  0  0  0  0  0  0  0
    6.0804   -0.9470    2.0168 C   0  0  0  0  0  0  0  0  0  0  0  0
    5.1253   -0.2805    1.0640 C   0  0  0  0  0  0  0  0  0  0  0  0
    4.3115   -6.6706    3.4425 C   0  0  2  0  0  0  0  0  0  0  0  0
    4.5589   -6.9498    1.9647 C   0  0  0  0  0  0  0  0  0  0  0  0
    4.9538   -8.3604    1.5641 C   0  0  0  0  0  0  0  0  0  0  0  0
    5.9573   -7.2347    1.4695 C   0  0  0  0  0  0  0  0  0  0  0  0
    4.7272   -3.3666   -1.7984 C   0  0  0  0  0  0  0  0  0  0  0  0
    5.0920   -2.7505   -3.0055 C   0  0  0  0  0  0  0  0  0  0  0  0
    4.2055   -2.2566   -3.8953 N   0  0  0  0  0  0  0  0  0  0  0  0
    2.2069   -1.9732   -4.3195 H   0  0  0  0  0  0  0  0  0  0  0  0
    1.3685   -3.0294   -2.2304 H   0  0  0  0  0  0  0  0  0  0  0  0
    2.0496   -3.4954    0.2549 H   0  0  0  0  0  0  0  0  0  0  0  0
    2.2384   -4.9456   -0.6129 H   0  0  0  0  0  0  0  0  0  0  0  0
    4.8338   -4.6634    0.4493 H   0  0  0  0  0  0  0  0  0  0  0  0
    3.6786   -6.6403    0.0940 H   0  0  0  0  0  0  0  0  0  0  0  0
    1.3604   -6.1936    0.8982 H   0  0  0  0  0  0  0  0  0  0  0  0
    2.0434   -7.6936    1.4584 H   0  0  0  0  0  0  0  0  0  0  0  0
    1.8837   -5.1012    3.0672 H   0  0  0  0  0  0  0  0  0  0  0  0
    0.8959   -6.5256    3.3062 H   0  0  0  0  0  0  0  0  0  0  0  0
    1.9151   -5.8035    5.5594 H   0  0  0  0  0  0  0  0  0  0  0  0
    3.2822   -6.8441    5.9535 H   0  0  0  0  0  0  0  0  0  0  0  0
    3.3689   -4.0240    4.8857 H   0  0  0  0  0  0  0  0  0  0  0  0
    4.4272   -4.8017    6.0623 H   0  0  0  0  0  0  0  0  0  0  0  0
    5.8258   -5.5579    4.4204 H   0  0  0  0  0  0  0  0  0  0  0  0
    5.4781   -3.3649    3.4452 H   0  0  0  0  0  0  0  0  0  0  0  0
    5.9330   -4.5358    2.2606 H   0  0  0  0  0  0  0  0  0  0  0  0
    2.9726   -2.0981    1.4498 H   0  0  0  0  0  0  0  0  0  0  0  0
    3.7870   -1.9640    2.9568 H   0  0  0  0  0  0  0  0  0  0  0  0
    5.4861   -2.3648    0.4500 H   0  0  0  0  0  0  0  0  0  0  0  0
    5.9327   -0.7853    3.0842 H   0  0  0  0  0  0  0  0  0  0  0  0
    7.1133   -1.0534    1.6922 H   0  0  0  0  0  0  0  0  0  0  0  0
    5.5449    0.0820    0.1285 H   0  0  0  0  0  0  0  0  0  0  0  0
    4.3426    0.3419    1.4980 H   0  0  0  0  0  0  0  0  0  0  0  0
    4.8413   -7.4500    3.9984 H   0  0  0  0  0  0  0  0  0  0  0  0
    5.0987   -9.0988    2.3543 H   0  0  0  0  0  0  0  0  0  0  0  0
    4.5529   -8.7645    0.6347 H   0  0  0  0  0  0  0  0  0  0  0  0
    6.2218   -6.8587    0.4847 H   0  0  0  0  0  0  0  0  0  0  0  0
    6.7685   -7.2307    2.1957 H   0  0  0  0  0  0  0  0  0  0  0  0
    5.5256   -3.7528   -1.1845 H   0  0  0  0  0  0  0  0  0  0  0  0
    6.1344   -2.6591   -3.2560 H   0  0  0  0  0  0  0  0  0  0  0  0
    2.6816   -7.7505    4.0070 H   0  0  0  0  0  0  0  0  0  0  0  0
  1 25  2  0
  1  2  1  0
  1 26  1  0
  2  3  2  0
  2 27  1  0
  3  4  1  0
  3 23  1  0
  4  5  1  0
  4 28  1  0
  4 29  1  0
  5 14  1  0
  5  6  1  0
  5 30  1  6
  6 20  1  0
  6  7  1  0
  6 31  1  6
  7  8  1  0
  7 32  1  0
  7 33  1  0
  8  9  1  0
  8 34  1  0
  8 35  1  0
  9 19  1  0
  9 10  1  0
  9 57  1  1
 10 11  1  0
 10 36  1  0
 10 37  1  0
 11 12  1  0
 11 38  1  0
 11 39  1  0
 12 13  1  0
 12 19  1  0
 12 40  1  1
 13 14  1  0
 13 41  1  0
 13 42  1  0
 14 15  1  0
 15 16  1  0
 15 43  1  0
 15 44  1  0
 16 18  1  0
 16 17  1  0
 16 45  1  0
 17 18  1  0
 17 46  1  0
 17 47  1  0
 18 48  1  0
 18 49  1  0
 19 20  1  0
 19 50  1  1
 20 22  1  0
 20 21  1  0
 21 22  1  0
 21 51  1  0
 21 52  1  0
 22 53  1  0
 22 54  1  0
 23 24  2  0
 23 55  1  0
 24 25  1  0
 24 56  1  0
M  CHG  1   9   1
M  END
>  <i_m_ct_stereo_status>  (247) 
1

>  <s_m_source_file>  (247) 
/var/tmp/pbs.5076255.sched01/tmpavn81tjv/78c0r2i372.sdf

>  <i_m_source_file_index>  (247) 
20

>  <i_lp_mmshare_version>  (247) 
48012

>  <i_f3d_flags>  (247) 
0

>  <s_epik_input>  (247) 
W2NIXTFbY0hdbltjSF1bY0hdYzFbQ0gyXVtDQEhdKFtDQEhdMkMzNFtDSDJdW0NIMl00KU4oW0NIMl1bQ0hdNVtDSDJdW0NIMl01KVtDSDJdW0NAQEhdNltDQEhdM04oW0NIMl1bQ0gyXTIpW0NIMl1bQ0gyXTY=

>  <s_epik_cmdline>  (247) 
J2VwaWtfcHl0aG9uJywgJy1waHQnLCAnMi4wJywgJy1waCcsICc3LjAnLCAnLXRuJywgJzgnLCAnLW1hJywgJzIwMCcsICctaW1hZScsICc8aW5maWxlLm1hZT4nLCAnLW9tYWUnLCAnPG91dGZpbGUubWFlPic=

>  <r_epik_Ionization_Penalty>  (247) 
1.62913

>  <r_epik_Ionization_Penalty_Charging>  (247) 
0.000103634

>  <r_epik_Ionization_Penalty_Neutral>  (247) 
1.62903

>  <r_epik_State_Penalty>  (247) 
1.58848

>  <r_epik_Charging_Adjusted_Penalty>  (247) 
1.58859

>  <i_epik_Tot_Q>  (247) 
1

>  <i_epik_Tot_abs_Q>  (247) 
1

>  <s_lp_Force_Field>  (247) 
OPLS3e

>  <r_lp_Energy>  (247) 
50.966

>  <b_lp_Chiralities_Consistent>  (247) 
1

>  <s_lp_Variant>  (247) 
72:0-2

>  <s_i_glide_gridfile>  (247) 
pfpi4k_grid

>  <i_i_glide_lignum>  (247) 
20

>  <i_i_glide_rotatable_bonds>  (247) 
4

>  <r_i_docking_score>  (247) 
-3.32951

>  <r_i_glide_ligand_efficiency>  (247) 
-0.13318

>  <r_i_glide_ligand_efficiency_sa>  (247) 
-0.389422

>  <r_i_glide_ligand_efficiency_ln>  (247) 
-0.789193

>  <r_i_glide_gscore>  (247) 
-3.32951

>  <r_i_glide_lipo>  (247) 
-1.07361

>  <r_i_glide_hbond>  (247) 
-0.147652

>  <r_i_glide_metal>  (247) 
-0

>  <r_i_glide_rewards>  (247) 
-1.10107

>  <r_i_glide_evdw>  (247) 
-23.0426

>  <r_i_glide_ecoul>  (247) 
-3.4335

>  <r_i_glide_erotb>  (247) 
0.660201

>  <r_i_glide_esite>  (247) 
-0.000228695

>  <r_i_glide_emodel>  (247) 
-29.845

>  <r_i_glide_energy>  (247) 
-26.4761

>  <r_i_glide_einternal>  (247) 
3.85577

>  <r_i_glide_intrahb_reward>  (247) 
-0

>  <i_i_glide_confnum>  (247) 
1

>  <i_i_glide_posenum>  (247) 
19

>  <r_i_glide_eff_state_penalty>  (247) 
0

>  <ligand_id>  (247) 
72

>  <original_smiles>  (247) 
c1cc(CC2C3CCN4CCC(CN2CC2CC2)C4C32CC2)ccn1

>  <smiles>  (247) 
[H]c1nc([H])c([H])c(C([H])([H])C2([H])N(C([H])([H])C3([H])C([H])([H])C3([H])[H])C([H])([H])C3([H])C([H])([H])C([H])([H])[N+]4([H])C([H])([H])C([H])([H])C2([H])C2(C([H])([H])C2([H])[H])C34[H])c1[H]

$$$$
72:1:1
     RDKit          3D

 57 62  0  0  1  0  0  0  0  0999 V2000
    4.6167   -0.7691   -2.5135 C   0  0  0  0  0  0  0  0  0  0  0  0
    4.8039   -1.8958   -1.6965 C   0  0  0  0  0  0  0  0  0  0  0  0
    3.9829   -3.0137   -1.8807 C   0  0  0  0  0  0  0  0  0  0  0  0
    4.0849   -4.2584   -0.9939 C   0  0  0  0  0  0  0  0  0  0  0  0
    4.9205   -4.1881    0.3210 C   0  0  2  0  0  0  0  0  0  0  0  0
    5.5258   -5.6060    0.6025 C   0  0  2  0  0  0  0  0  0  0  0  0
    4.5319   -6.7723    0.7536 C   0  0  0  0  0  0  0  0  0  0  0  0
    3.7635   -6.6724    2.0652 C   0  0  0  0  0  0  0  0  0  0  0  0
    4.6910   -6.6041    3.2260 N   0  0  2  0  0  0  0  0  0  0  0  0
    4.0061   -6.1486    4.4440 C   0  0  0  0  0  0  0  0  0  0  0  0
    4.1405   -4.6208    4.4505 C   0  0  0  0  0  0  0  0  0  0  0  0
    5.3823   -4.3237    3.5910 C   0  0  2  0  0  0  0  0  0  0  0  0
    5.2002   -3.2216    2.5163 C   0  0  0  0  0  0  0  0  0  0  0  0
    4.2218   -3.5828    1.4784 N   0  0  0  0  0  0  0  0  0  0  0  0
    3.4292   -2.3726    1.1913 C   0  0  0  0  0  0  0  0  0  0  0  0
    2.3276   -2.1702    2.2127 C   0  0  0  0  0  0  0  0  0  0  0  0
    1.4651   -0.9199    2.1427 C   0  0  0  0  0  0  0  0  0  0  0  0
    2.4196   -1.1110    3.2880 C   0  0  0  0  0  0  0  0  0  0  0  0
    5.8433   -5.6890    3.0780 C   0  0  2  0  0  0  0  0  0  0  0  0
    6.5471   -5.6827    1.7302 C   0  0  0  0  0  0  0  0  0  0  0  0
    7.7537   -6.5838    1.5519 C   0  0  0  0  0  0  0  0  0  0  0  0
    7.9313   -5.0923    1.5687 C   0  0  0  0  0  0  0  0  0  0  0  0
    3.0342   -2.9714   -2.9410 C   0  0  0  0  0  0  0  0  0  0  0  0
    2.9675   -1.7941   -3.7272 C   0  0  0  0  0  0  0  0  0  0  0  0
    3.7526   -0.7248   -3.5401 N   0  0  0  0  0  0  0  0  0  0  0  0
    5.2419    0.0858   -2.3469 H   0  0  0  0  0  0  0  0  0  0  0  0
    5.5590   -1.8316   -0.9309 H   0  0  0  0  0  0  0  0  0  0  0  0
    3.0779   -4.6315   -0.7843 H   0  0  0  0  0  0  0  0  0  0  0  0
    4.5956   -4.9959   -1.6123 H   0  0  0  0  0  0  0  0  0  0  0  0
    5.8112   -3.6054    0.1029 H   0  0  0  0  0  0  0  0  0  0  0  0
    6.1091   -5.8429   -0.2833 H   0  0  0  0  0  0  0  0  0  0  0  0
    3.8535   -6.8108   -0.1063 H   0  0  0  0  0  0  0  0  0  0  0  0
    5.0993   -7.7081    0.7283 H   0  0  0  0  0  0  0  0  0  0  0  0
    3.1236   -5.7988    2.0347 H   0  0  0  0  0  0  0  0  0  0  0  0
    3.1138   -7.5317    2.1740 H   0  0  0  0  0  0  0  0  0  0  0  0
    2.9738   -6.4713    4.5197 H   0  0  0  0  0  0  0  0  0  0  0  0
    4.5481   -6.5424    5.2984 H   0  0  0  0  0  0  0  0  0  0  0  0
    3.2486   -4.1518    4.0260 H   0  0  0  0  0  0  0  0  0  0  0  0
    4.2548   -4.2348    5.4729 H   0  0  0  0  0  0  0  0  0  0  0  0
    6.1479   -3.9725    4.2812 H   0  0  0  0  0  0  0  0  0  0  0  0
    4.8836   -2.3157    3.0368 H   0  0  0  0  0  0  0  0  0  0  0  0
    6.1655   -2.9513    2.0699 H   0  0  0  0  0  0  0  0  0  0  0  0
    4.0697   -1.4882    1.1086 H   0  0  0  0  0  0  0  0  0  0  0  0
    2.8590   -2.4569    0.2748 H   0  0  0  0  0  0  0  0  0  0  0  0
    1.7638   -3.0765    2.4284 H   0  0  0  0  0  0  0  0  0  0  0  0
    1.7118   -0.1577    1.4076 H   0  0  0  0  0  0  0  0  0  0  0  0
    0.4111   -0.9984    2.3899 H   0  0  0  0  0  0  0  0  0  0  0  0
    1.9911   -1.3606    4.2561 H   0  0  0  0  0  0  0  0  0  0  0  0
    3.3082   -0.4860    3.2988 H   0  0  0  0  0  0  0  0  0  0  0  0
    6.5803   -6.0324    3.8015 H   0  0  0  0  0  0  0  0  0  0  0  0
    8.1180   -7.1418    2.4170 H   0  0  0  0  0  0  0  0  0  0  0  0
    7.8982   -7.0949    0.5980 H   0  0  0  0  0  0  0  0  0  0  0  0
    8.1724   -4.5968    0.6290 H   0  0  0  0  0  0  0  0  0  0  0  0
    8.4340   -4.6763    2.4411 H   0  0  0  0  0  0  0  0  0  0  0  0
    2.3546   -3.7844   -3.1346 H   0  0  0  0  0  0  0  0  0  0  0  0
    2.2400   -1.6830   -4.5178 H   0  0  0  0  0  0  0  0  0  0  0  0
    5.0515   -7.5339    3.3634 H   0  0  0  0  0  0  0  0  0  0  0  0
  1 25  2  0
  1  2  1  0
  1 26  1  0
  2  3  2  0
  2 27  1  0
  3  4  1  0
  3 23  1  0
  4  5  1  0
  4 28  1  0
  4 29  1  0
  5 14  1  0
  5  6  1  0
  5 30  1  6
  6 20  1  0
  6  7  1  0
  6 31  1  6
  7  8  1  0
  7 32  1  0
  7 33  1  0
  8  9  1  0
  8 34  1  0
  8 35  1  0
  9 19  1  0
  9 10  1  0
  9 57  1  1
 10 11  1  0
 10 36  1  0
 10 37  1  0
 11 12  1  0
 11 38  1  0
 11 39  1  0
 12 13  1  0
 12 19  1  0
 12 40  1  1
 13 14  1  0
 13 41  1  0
 13 42  1  0
 14 15  1  0
 15 16  1  0
 15 43  1  0
 15 44  1  0
 16 18  1  0
 16 17  1  0
 16 45  1  0
 17 18  1  0
 17 46  1  0
 17 47  1  0
 18 48  1  0
 18 49  1  0
 19 20  1  0
 19 50  1  1
 20 22  1  0
 20 21  1  0
 21 22  1  0
 21 51  1  0
 21 52  1  0
 22 53  1  0
 22 54  1  0
 23 24  2  0
 23 55  1  0
 24 25  1  0
 24 56  1  0
M  CHG  1   9   1
M  END
>  <i_m_ct_stereo_status>  (248) 
1

>  <s_m_source_file>  (248) 
/var/tmp/pbs.5076255.sched01/tmpavn81tjv/78c0r2i372.sdf

>  <i_m_source_file_index>  (248) 
20

>  <i_lp_mmshare_version>  (248) 
48012

>  <i_f3d_flags>  (248) 
0

>  <s_epik_input>  (248) 
W2NIXTFbY0hdbltjSF1bY0hdYzFbQ0gyXVtDQEhdKFtDQEhdMkMzNFtDSDJdW0NIMl00KU4oW0NIMl1bQ0hdNVtDSDJdW0NIMl01KVtDSDJdW0NAQEhdNltDQEhdM04oW0NIMl1bQ0gyXTIpW0NIMl1bQ0gyXTY=

>  <s_epik_cmdline>  (248) 
J2VwaWtfcHl0aG9uJywgJy1waHQnLCAnMi4wJywgJy1waCcsICc3LjAnLCAnLXRuJywgJzgnLCAnLW1hJywgJzIwMCcsICctaW1hZScsICc8aW5maWxlLm1hZT4nLCAnLW9tYWUnLCAnPG91dGZpbGUubWFlPic=

>  <r_epik_Ionization_Penalty>  (248) 
1.62913

>  <r_epik_Ionization_Penalty_Charging>  (248) 
0.000103634

>  <r_epik_Ionization_Penalty_Neutral>  (248) 
1.62903

>  <r_epik_State_Penalty>  (248) 
1.58848

>  <r_epik_Charging_Adjusted_Penalty>  (248) 
1.58859

>  <i_epik_Tot_Q>  (248) 
1

>  <i_epik_Tot_abs_Q>  (248) 
1

>  <s_lp_Force_Field>  (248) 
OPLS3e

>  <r_lp_Energy>  (248) 
50.966

>  <b_lp_Chiralities_Consistent>  (248) 
1

>  <s_lp_Variant>  (248) 
72:0-2

>  <s_i_glide_gridfile>  (248) 
pfpi4k_grid

>  <i_i_glide_lignum>  (248) 
20

>  <i_i_glide_rotatable_bonds>  (248) 
4

>  <r_i_docking_score>  (248) 
-2.68555

>  <r_i_glide_ligand_efficiency>  (248) 
-0.107422

>  <r_i_glide_ligand_efficiency_sa>  (248) 
-0.314104

>  <r_i_glide_ligand_efficiency_ln>  (248) 
-0.636556

>  <r_i_glide_gscore>  (248) 
-2.68555

>  <r_i_glide_lipo>  (248) 
-0.704266

>  <r_i_glide_hbond>  (248) 
0

>  <r_i_glide_metal>  (248) 
-0

>  <r_i_glide_rewards>  (248) 
-1.10107

>  <r_i_glide_evdw>  (248) 
-22.0959

>  <r_i_glide_ecoul>  (248) 
-2.90412

>  <r_i_glide_erotb>  (248) 
0.660201

>  <r_i_glide_esite>  (248) 
0

>  <r_i_glide_emodel>  (248) 
-27.5427

>  <r_i_glide_energy>  (248) 
-25

>  <r_i_glide_einternal>  (248) 
3.379

>  <r_i_glide_intrahb_reward>  (248) 
-0

>  <i_i_glide_confnum>  (248) 
6

>  <i_i_glide_posenum>  (248) 
35

>  <r_i_glide_eff_state_penalty>  (248) 
0

>  <ligand_id>  (248) 
72

>  <original_smiles>  (248) 
c1cc(CC2C3CCN4CCC(CN2CC2CC2)C4C32CC2)ccn1

>  <smiles>  (248) 
[H]c1nc([H])c([H])c(C([H])([H])C2([H])N(C([H])([H])C3([H])C([H])([H])C3([H])[H])C([H])([H])C3([H])C([H])([H])C([H])([H])[N+]4([H])C([H])([H])C([H])([H])C2([H])C2(C([H])([H])C2([H])[H])C34[H])c1[H]

$$$$
72:1:2
     RDKit          3D

 57 62  0  0  1  0  0  0  0  0999 V2000
    4.5277   -0.7666   -2.4391 C   0  0  0  0  0  0  0  0  0  0  0  0
    4.1648   -1.5847   -1.3612 C   0  0  0  0  0  0  0  0  0  0  0  0
    3.4113   -2.7670   -1.5486 C   0  0  0  0  0  0  0  0  0  0  0  0
    2.9735   -3.6955   -0.4002 C   0  0  0  0  0  0  0  0  0  0  0  0
    4.0541   -4.1020    0.6768 C   0  0  2  0  0  0  0  0  0  0  0  0
    3.8538   -5.6491    0.9553 C   0  0  2  0  0  0  0  0  0  0  0  0
    2.4667   -6.0743    1.4581 C   0  0  0  0  0  0  0  0  0  0  0  0
    2.2565   -5.6280    2.9113 C   0  0  0  0  0  0  0  0  0  0  0  0
    3.3148   -6.1562    3.8118 N   0  0  2  0  0  0  0  0  0  0  0  0
    3.3524   -5.4717    5.1239 C   0  0  0  0  0  0  0  0  0  0  0  0
    4.3118   -4.2816    4.9562 C   0  0  0  0  0  0  0  0  0  0  0  0
    5.2267   -4.6696    3.7815 C   0  0  2  0  0  0  0  0  0  0  0  0
    5.3889   -3.6069    2.6746 C   0  0  0  0  0  0  0  0  0  0  0  0
    4.1386   -3.3054    1.9495 N   0  0  0  0  0  0  0  0  0  0  0  0
    4.0396   -1.8241    1.9075 C   0  0  0  0  0  0  0  0  0  0  0  0
    2.6284   -1.2470    1.6476 C   0  0  0  0  0  0  0  0  0  0  0  0
    2.3450    0.2380    1.6198 C   0  0  0  0  0  0  0  0  0  0  0  0
    1.8844   -0.5874    2.7890 C   0  0  0  0  0  0  0  0  0  0  0  0
    4.7010   -6.0243    3.2973 C   0  0  2  0  0  0  0  0  0  0  0  0
    4.9009   -6.3411    1.8141 C   0  0  0  0  0  0  0  0  0  0  0  0
    5.3148   -7.7519    1.4385 C   0  0  0  0  0  0  0  0  0  0  0  0
    6.2853   -6.5989    1.2712 C   0  0  0  0  0  0  0  0  0  0  0  0
    3.0292   -3.0248   -2.8849 C   0  0  0  0  0  0  0  0  0  0  0  0
    3.4469   -2.1275   -3.9021 C   0  0  0  0  0  0  0  0  0  0  0  0
    4.1967   -1.0382   -3.7045 N   0  0  0  0  0  0  0  0  0  0  0  0
    5.1126    0.0999   -2.2029 H   0  0  0  0  0  0  0  0  0  0  0  0
    4.4474   -1.2042   -0.4459 H   0  0  0  0  0  0  0  0  0  0  0  0
    2.0490   -3.4000    0.0665 H   0  0  0  0  0  0  0  0  0  0  0  0
    2.5712   -4.5833   -0.8979 H   0  0  0  0  0  0  0  0  0  0  0  0
    5.0230   -4.0210    0.1568 H   0  0  0  0  0  0  0  0  0  0  0  0
    3.9468   -6.1052   -0.0306 H   0  0  0  0  0  0  0  0  0  0  0  0
    1.6656   -5.7149    0.8219 H   0  0  0  0  0  0  0  0  0  0  0  0
    2.3877   -7.1582    1.4174 H   0  0  0  0  0  0  0  0  0  0  0  0
    2.1933   -4.5390    2.9606 H   0  0  0  0  0  0  0  0  0  0  0  0
    1.2798   -5.9801    3.2657 H   0  0  0  0  0  0  0  0  0  0  0  0
    2.3647   -5.1911    5.4990 H   0  0  0  0  0  0  0  0  0  0  0  0
    3.7687   -6.1824    5.8496 H   0  0  0  0  0  0  0  0  0  0  0  0
    3.7426   -3.3876    4.7182 H   0  0  0  0  0  0  0  0  0  0  0  0
    4.8684   -4.0740    5.8672 H   0  0  0  0  0  0  0  0  0  0  0  0
    6.2238   -4.8270    4.1902 H   0  0  0  0  0  0  0  0  0  0  0  0
    5.8002   -2.7215    3.1550 H   0  0  0  0  0  0  0  0  0  0  0  0
    6.1734   -3.9103    1.9836 H   0  0  0  0  0  0  0  0  0  0  0  0
    4.3869   -1.3468    2.8144 H   0  0  0  0  0  0  0  0  0  0  0  0
    4.8527   -1.4288    1.3055 H   0  0  0  0  0  0  0  0  0  0  0  0
    1.9720   -1.6931    0.9316 H   0  0  0  0  0  0  0  0  0  0  0  0
    3.1991    0.9013    1.7228 H   0  0  0  0  0  0  0  0  0  0  0  0
    1.5847    0.5495    0.8958 H   0  0  0  0  0  0  0  0  0  0  0  0
    0.8223   -0.8294    2.8635 H   0  0  0  0  0  0  0  0  0  0  0  0
    2.4212   -0.4962    3.7316 H   0  0  0  0  0  0  0  0  0  0  0  0
    5.2601   -6.7809    3.8602 H   0  0  0  0  0  0  0  0  0  0  0  0
    5.5164   -8.4612    2.2366 H   0  0  0  0  0  0  0  0  0  0  0  0
    4.8892   -8.1850    0.5393 H   0  0  0  0  0  0  0  0  0  0  0  0
    6.4925   -6.2556    0.2625 H   0  0  0  0  0  0  0  0  0  0  0  0
    7.1206   -6.5394    1.9666 H   0  0  0  0  0  0  0  0  0  0  0  0
    2.4029   -3.8876   -3.1403 H   0  0  0  0  0  0  0  0  0  0  0  0
    3.1913   -2.3260   -4.9352 H   0  0  0  0  0  0  0  0  0  0  0  0
    3.1127   -7.1320    3.9508 H   0  0  0  0  0  0  0  0  0  0  0  0
  1 25  2  0
  1  2  1  0
  1 26  1  0
  2  3  2  0
  2 27  1  0
  3  4  1  0
  3 23  1  0
  4  5  1  0
  4 28  1  0
  4 29  1  0
  5 14  1  0
  5  6  1  0
  5 30  1  6
  6 20  1  0
  6  7  1  0
  6 31  1  6
  7  8  1  0
  7 32  1  0
  7 33  1  0
  8  9  1  0
  8 34  1  0
  8 35  1  0
  9 19  1  0
  9 10  1  0
  9 57  1  1
 10 11  1  0
 10 36  1  0
 10 37  1  0
 11 12  1  0
 11 38  1  0
 11 39  1  0
 12 13  1  0
 12 19  1  0
 12 40  1  1
 13 14  1  0
 13 41  1  0
 13 42  1  0
 14 15  1  0
 15 16  1  0
 15 43  1  0
 15 44  1  0
 16 18  1  0
 16 17  1  0
 16 45  1  0
 17 18  1  0
 17 46  1  0
 17 47  1  0
 18 48  1  0
 18 49  1  0
 19 20  1  0
 19 50  1  1
 20 22  1  0
 20 21  1  0
 21 22  1  0
 21 51  1  0
 21 52  1  0
 22 53  1  0
 22 54  1  0
 23 24  2  0
 23 55  1  0
 24 25  1  0
 24 56  1  0
M  CHG  1   9   1
M  END
>  <i_m_ct_stereo_status>  (249) 
1

>  <s_m_source_file>  (249) 
/var/tmp/pbs.5076255.sched01/tmpavn81tjv/78c0r2i372.sdf

>  <i_m_source_file_index>  (249) 
20

>  <i_lp_mmshare_version>  (249) 
48012

>  <i_f3d_flags>  (249) 
0

>  <s_epik_input>  (249) 
W2NIXTFbY0hdbltjSF1bY0hdYzFbQ0gyXVtDQEhdKFtDQEhdMkMzNFtDSDJdW0NIMl00KU4oW0NIMl1bQ0hdNVtDSDJdW0NIMl01KVtDSDJdW0NAQEhdNltDQEhdM04oW0NIMl1bQ0gyXTIpW0NIMl1bQ0gyXTY=

>  <s_epik_cmdline>  (249) 
J2VwaWtfcHl0aG9uJywgJy1waHQnLCAnMi4wJywgJy1waCcsICc3LjAnLCAnLXRuJywgJzgnLCAnLW1hJywgJzIwMCcsICctaW1hZScsICc8aW5maWxlLm1hZT4nLCAnLW9tYWUnLCAnPG91dGZpbGUubWFlPic=

>  <r_epik_Ionization_Penalty>  (249) 
1.62913

>  <r_epik_Ionization_Penalty_Charging>  (249) 
0.000103634

>  <r_epik_Ionization_Penalty_Neutral>  (249) 
1.62903

>  <r_epik_State_Penalty>  (249) 
1.58848

>  <r_epik_Charging_Adjusted_Penalty>  (249) 
1.58859

>  <i_epik_Tot_Q>  (249) 
1

>  <i_epik_Tot_abs_Q>  (249) 
1

>  <s_lp_Force_Field>  (249) 
OPLS3e

>  <r_lp_Energy>  (249) 
50.966

>  <b_lp_Chiralities_Consistent>  (249) 
1

>  <s_lp_Variant>  (249) 
72:0-2

>  <s_i_glide_gridfile>  (249) 
pfpi4k_grid

>  <i_i_glide_lignum>  (249) 
20

>  <i_i_glide_rotatable_bonds>  (249) 
4

>  <r_i_docking_score>  (249) 
-2.40136

>  <r_i_glide_ligand_efficiency>  (249) 
-0.0960545

>  <r_i_glide_ligand_efficiency_sa>  (249) 
-0.280865

>  <r_i_glide_ligand_efficiency_ln>  (249) 
-0.569195

>  <r_i_glide_gscore>  (249) 
-2.40136

>  <r_i_glide_lipo>  (249) 
-0.403963

>  <r_i_glide_hbond>  (249) 
0

>  <r_i_glide_metal>  (249) 
-0

>  <r_i_glide_rewards>  (249) 
-1.10107

>  <r_i_glide_evdw>  (249) 
-22.9799

>  <r_i_glide_ecoul>  (249) 
-2.71689

>  <r_i_glide_erotb>  (249) 
0.660201

>  <r_i_glide_esite>  (249) 
0

>  <r_i_glide_emodel>  (249) 
-27.2396

>  <r_i_glide_energy>  (249) 
-25.6968

>  <r_i_glide_einternal>  (249) 
2.22951

>  <r_i_glide_intrahb_reward>  (249) 
-0

>  <i_i_glide_confnum>  (249) 
6

>  <i_i_glide_posenum>  (249) 
24

>  <r_i_glide_eff_state_penalty>  (249) 
0

>  <ligand_id>  (249) 
72

>  <original_smiles>  (249) 
c1cc(CC2C3CCN4CCC(CN2CC2CC2)C4C32CC2)ccn1

>  <smiles>  (249) 
[H]c1nc([H])c([H])c(C([H])([H])C2([H])N(C([H])([H])C3([H])C([H])([H])C3([H])[H])C([H])([H])C3([H])C([H])([H])C([H])([H])[N+]4([H])C([H])([H])C([H])([H])C2([H])C2(C([H])([H])C2([H])[H])C34[H])c1[H]

$$$$
72:2:0
     RDKit          3D

 58 63  0  0  1  0  0  0  0  0999 V2000
    3.5325   -9.2400    1.6798 C   0  0  0  0  0  0  0  0  0  0  0  0
    3.5732   -7.9008    2.1183 C   0  0  0  0  0  0  0  0  0  0  0  0
    4.7998   -7.2090    2.1186 C   0  0  0  0  0  0  0  0  0  0  0  0
    4.8826   -5.7977    2.6874 C   0  0  0  0  0  0  0  0  0  0  0  0
    3.8570   -4.7721    2.0607 C   0  0  2  0  0  0  0  0  0  0  0  0
    4.4265   -4.2237    0.6941 C   0  0  2  0  0  0  0  0  0  0  0  0
    5.8227   -3.5554    0.7205 C   0  0  0  0  0  0  0  0  0  0  0  0
    5.7697   -2.1961    1.4294 C   0  0  0  0  0  0  0  0  0  0  0  0
    4.8019   -1.2861    0.7665 N   0  0  2  0  0  0  0  0  0  0  0  0
    4.4672   -0.1193    1.6042 C   0  0  0  0  0  0  0  0  0  0  0  0
    3.2576   -0.5412    2.4535 C   0  0  0  0  0  0  0  0  0  0  0  0
    2.5884   -1.6765    1.6594 C   0  0  2  0  0  0  0  0  0  0  0  0
    2.2510   -2.9483    2.4650 C   0  0  0  0  0  0  0  0  0  0  0  0
    3.4179   -3.6867    2.9836 N   0  0  0  0  0  0  0  0  0  0  0  0
    3.1233   -4.0691    4.3801 C   0  0  0  0  0  0  0  0  0  0  0  0
    1.9489   -5.0301    4.5635 C   0  0  0  0  0  0  0  0  0  0  0  0
    0.5778   -4.5265    4.9636 C   0  0  0  0  0  0  0  0  0  0  0  0
    1.4054   -5.3036    5.9514 C   0  0  0  0  0  0  0  0  0  0  0  0
    3.4835   -1.8884    0.4391 C   0  0  2  0  0  0  0  0  0  0  0  0
    3.5139   -3.3085   -0.1214 C   0  0  0  0  0  0  0  0  0  0  0  0
    3.5250   -3.4577   -1.6350 C   0  0  0  0  0  0  0  0  0  0  0  0
    2.3045   -3.8629   -0.8404 C   0  0  0  0  0  0  0  0  0  0  0  0
    5.9654   -7.8875    1.7035 C   0  0  0  0  0  0  0  0  0  0  0  0
    5.8694   -9.2277    1.2785 C   0  0  0  0  0  0  0  0  0  0  0  0
    4.6664   -9.8307    1.2806 N   0  0  0  0  0  0  0  0  0  0  0  0
    2.6410   -9.8501    1.6410 H   0  0  0  0  0  0  0  0  0  0  0  0
    2.6592   -7.4467    2.4751 H   0  0  0  0  0  0  0  0  0  0  0  0
    4.7632   -5.9626    3.7538 H   0  0  0  0  0  0  0  0  0  0  0  0
    5.9072   -5.4402    2.6046 H   0  0  0  0  0  0  0  0  0  0  0  0
    2.9395   -5.3132    1.8251 H   0  0  0  0  0  0  0  0  0  0  0  0
    4.5550   -5.1107    0.0775 H   0  0  0  0  0  0  0  0  0  0  0  0
    6.6072   -4.1697    1.1615 H   0  0  0  0  0  0  0  0  0  0  0  0
    6.1587   -3.4006   -0.3091 H   0  0  0  0  0  0  0  0  0  0  0  0
    5.5208   -2.3337    2.4840 H   0  0  0  0  0  0  0  0  0  0  0  0
    6.7597   -1.7324    1.4138 H   0  0  0  0  0  0  0  0  0  0  0  0
    5.3097    0.2167    2.2134 H   0  0  0  0  0  0  0  0  0  0  0  0
    4.1772    0.6955    0.9332 H   0  0  0  0  0  0  0  0  0  0  0  0
    3.5983   -0.8944    3.4272 H   0  0  0  0  0  0  0  0  0  0  0  0
    2.5902    0.3096    2.6275 H   0  0  0  0  0  0  0  0  0  0  0  0
    1.6444   -1.2785    1.2834 H   0  0  0  0  0  0  0  0  0  0  0  0
    1.6067   -2.6206    3.2759 H   0  0  0  0  0  0  0  0  0  0  0  0
    1.6270   -3.6070    1.8664 H   0  0  0  0  0  0  0  0  0  0  0  0
    4.0030   -4.4823    4.8686 H   0  0  0  0  0  0  0  0  0  0  0  0
    2.9158   -3.1675    4.9573 H   0  0  0  0  0  0  0  0  0  0  0  0
    1.9644   -5.9015    3.9153 H   0  0  0  0  0  0  0  0  0  0  0  0
    0.4524   -3.4562    5.1327 H   0  0  0  0  0  0  0  0  0  0  0  0
   -0.2729   -5.0310    4.5086 H   0  0  0  0  0  0  0  0  0  0  0  0
    1.0554   -6.3074    6.1837 H   0  0  0  0  0  0  0  0  0  0  0  0
    1.7961   -4.7472    6.8011 H   0  0  0  0  0  0  0  0  0  0  0  0
    3.0779   -1.2451   -0.3450 H   0  0  0  0  0  0  0  0  0  0  0  0
    3.4407   -2.5604   -2.2492 H   0  0  0  0  0  0  0  0  0  0  0  0
    4.1422   -4.2469   -2.0635 H   0  0  0  0  0  0  0  0  0  0  0  0
    2.0997   -4.9225   -0.7171 H   0  0  0  0  0  0  0  0  0  0  0  0
    1.4285   -3.2264   -0.9399 H   0  0  0  0  0  0  0  0  0  0  0  0
    6.9335   -7.4018    1.7408 H   0  0  0  0  0  0  0  0  0  0  0  0
    6.7045   -9.8232    0.9438 H   0  0  0  0  0  0  0  0  0  0  0  0
    5.2211   -0.9709   -0.0885 H   0  0  0  0  0  0  0  0  0  0  0  0
    4.5901  -10.8119    0.9223 H   0  0  0  0  0  0  0  0  0  0  0  0
  1 25  2  0
  1  2  1  0
  1 26  1  0
  2  3  2  0
  2 27  1  0
  3  4  1  0
  3 23  1  0
  4  5  1  0
  4 28  1  0
  4 29  1  0
  5 14  1  0
  5  6  1  0
  5 30  1  6
  6 20  1  0
  6  7  1  0
  6 31  1  6
  7  8  1  0
  7 32  1  0
  7 33  1  0
  8  9  1  0
  8 34  1  0
  8 35  1  0
  9 19  1  0
  9 10  1  0
  9 57  1  6
 10 11  1  0
 10 36  1  0
 10 37  1  0
 11 12  1  0
 11 38  1  0
 11 39  1  0
 12 13  1  0
 12 19  1  0
 12 40  1  6
 13 14  1  0
 13 41  1  0
 13 42  1  0
 14 15  1  0
 15 16  1  0
 15 43  1  0
 15 44  1  0
 16 18  1  0
 16 17  1  0
 16 45  1  0
 17 18  1  0
 17 46  1  0
 17 47  1  0
 18 48  1  0
 18 49  1  0
 19 20  1  0
 19 50  1  6
 20 22  1  0
 20 21  1  0
 21 22  1  0
 21 51  1  0
 21 52  1  0
 22 53  1  0
 22 54  1  0
 23 24  2  0
 23 55  1  0
 24 25  1  0
 24 56  1  0
 25 58  1  0
M  CHG  2   9   1  25   1
M  END
>  <i_m_ct_stereo_status>  (250) 
1

>  <s_m_source_file>  (250) 
/var/tmp/pbs.5076255.sched01/tmpavn81tjv/78c0r2i372.sdf

>  <i_m_source_file_index>  (250) 
21

>  <i_lp_mmshare_version>  (250) 
48012

>  <i_f3d_flags>  (250) 
0

>  <s_epik_input>  (250) 
W2NIXTFbY0hdbltjSF1bY0hdYzFbQ0gyXVtDQEhdKFtDQEhdMkMzNFtDSDJdW0NIMl00KU4oW0NIMl1bQ0hdNVtDSDJdW0NIMl01KVtDSDJdW0NAQEhdNltDQEhdM04oW0NIMl1bQ0gyXTIpW0NIMl1bQ0gyXTY=

>  <s_epik_cmdline>  (250) 
J2VwaWtfcHl0aG9uJywgJy1waHQnLCAnMi4wJywgJy1waCcsICc3LjAnLCAnLXRuJywgJzgnLCAnLW1hJywgJzIwMCcsICctaW1hZScsICc8aW5maWxlLm1hZT4nLCAnLW9tYWUnLCAnPG91dGZpbGUubWFlPic=

>  <r_epik_Ionization_Penalty>  (250) 
1.70849

>  <r_epik_Ionization_Penalty_Charging>  (250) 
0.924313

>  <r_epik_Ionization_Penalty_Neutral>  (250) 
0.784182

>  <r_epik_State_Penalty>  (250) 
2.42549

>  <r_epik_Charging_Adjusted_Penalty>  (250) 
3.34981

>  <i_epik_Tot_Q>  (250) 
2

>  <i_epik_Tot_abs_Q>  (250) 
2

>  <s_lp_Force_Field>  (250) 
OPLS3e

>  <r_lp_Energy>  (250) 
58.1866

>  <b_lp_Chiralities_Consistent>  (250) 
1

>  <s_lp_Variant>  (250) 
72:0-3

>  <s_i_glide_gridfile>  (250) 
pfpi4k_grid

>  <i_i_glide_lignum>  (250) 
21

>  <i_i_glide_rotatable_bonds>  (250) 
4

>  <r_i_docking_score>  (250) 
-3.40585

>  <r_i_glide_ligand_efficiency>  (250) 
-0.136234

>  <r_i_glide_ligand_efficiency_sa>  (250) 
-0.398351

>  <r_i_glide_ligand_efficiency_ln>  (250) 
-0.807289

>  <r_i_glide_gscore>  (250) 
-3.40585

>  <r_i_glide_lipo>  (250) 
-0.487013

>  <r_i_glide_hbond>  (250) 
-0.191787

>  <r_i_glide_metal>  (250) 
-0

>  <r_i_glide_rewards>  (250) 
-1.0942

>  <r_i_glide_evdw>  (250) 
-17.9144

>  <r_i_glide_ecoul>  (250) 
-8.62578

>  <r_i_glide_erotb>  (250) 
0.656731

>  <r_i_glide_esite>  (250) 
-0.1

>  <r_i_glide_emodel>  (250) 
-31.0225

>  <r_i_glide_energy>  (250) 
-26.5402

>  <r_i_glide_einternal>  (250) 
3.69213

>  <r_i_glide_intrahb_reward>  (250) 
-0

>  <i_i_glide_confnum>  (250) 
3

>  <i_i_glide_posenum>  (250) 
13

>  <r_i_glide_eff_state_penalty>  (250) 
0

>  <ligand_id>  (250) 
72

>  <original_smiles>  (250) 
c1cc(CC2C3CCN4CCC(CN2CC2CC2)C4C32CC2)ccn1

>  <smiles>  (250) 
[H]c1c(C([H])([H])C2([H])N(C([H])([H])C3([H])C([H])([H])C3([H])[H])C([H])([H])C3([H])C([H])([H])C([H])([H])[N+]4([H])C([H])([H])C([H])([H])C2([H])C2(C([H])([H])C2([H])[H])C34[H])c([H])c([H])[n+]([H])c1[H]

$$$$
72:2:1
     RDKit          3D

 58 63  0  0  1  0  0  0  0  0999 V2000
    3.1155   -9.3267    1.7296 C   0  0  0  0  0  0  0  0  0  0  0  0
    3.1146   -8.0154    2.2362 C   0  0  0  0  0  0  0  0  0  0  0  0
    4.3199   -7.2858    2.2548 C   0  0  0  0  0  0  0  0  0  0  0  0
    4.3450   -5.9318    2.9404 C   0  0  0  0  0  0  0  0  0  0  0  0
    3.4721   -4.8017    2.2809 C   0  0  2  0  0  0  0  0  0  0  0  0
    4.2267   -4.2670    1.0035 C   0  0  2  0  0  0  0  0  0  0  0  0
    5.6542   -3.7211    1.2057 C   0  0  0  0  0  0  0  0  0  0  0  0
    5.6232   -2.3817    1.9536 C   0  0  0  0  0  0  0  0  0  0  0  0
    4.8008   -1.3728    1.2238 N   0  0  2  0  0  0  0  0  0  0  0  0
    4.4638   -0.1958    2.0566 C   0  0  0  0  0  0  0  0  0  0  0  0
    3.1422   -0.5479    2.7563 C   0  0  0  0  0  0  0  0  0  0  0  0
    2.4838   -1.6069    1.8617 C   0  0  2  0  0  0  0  0  0  0  0  0
    1.9864   -2.8708    2.5891 C   0  0  0  0  0  0  0  0  0  0  0  0
    3.0429   -3.7054    3.2064 N   0  0  0  0  0  0  0  0  0  0  0  0
    2.5757   -4.0958    4.5501 C   0  0  0  0  0  0  0  0  0  0  0  0
    3.6896   -4.5050    5.5115 C   0  0  0  0  0  0  0  0  0  0  0  0
    3.4308   -5.5915    6.5361 C   0  0  0  0  0  0  0  0  0  0  0  0
    3.6630   -4.1727    6.9872 C   0  0  0  0  0  0  0  0  0  0  0  0
    3.4845   -1.8601    0.7279 C   0  0  2  0  0  0  0  0  0  0  0  0
    3.4831   -3.2695    0.1209 C   0  0  0  0  0  0  0  0  0  0  0  0
    3.6495   -3.3803   -1.3827 C   0  0  0  0  0  0  0  0  0  0  0  0
    2.3257   -3.7392   -0.7351 C   0  0  0  0  0  0  0  0  0  0  0  0
    5.5035   -7.9016    1.7927 C   0  0  0  0  0  0  0  0  0  0  0  0
    5.4464   -9.2140    1.2976 C   0  0  0  0  0  0  0  0  0  0  0  0
    4.2585   -9.8467    1.2812 N   0  0  0  0  0  0  0  0  0  0  0  0
    2.2263   -9.9403    1.6523 H   0  0  0  0  0  0  0  0  0  0  0  0
    2.2055   -7.5981    2.6571 H   0  0  0  0  0  0  0  0  0  0  0  0
    3.9786   -6.2247    3.9188 H   0  0  0  0  0  0  0  0  0  0  0  0
    5.3772   -5.6162    3.0930 H   0  0  0  0  0  0  0  0  0  0  0  0
    2.5523   -5.2762    1.9360 H   0  0  0  0  0  0  0  0  0  0  0  0
    4.3570   -5.1455    0.3759 H   0  0  0  0  0  0  0  0  0  0  0  0
    6.3228   -4.4095    1.7129 H   0  0  0  0  0  0  0  0  0  0  0  0
    6.1256   -3.5645    0.2335 H   0  0  0  0  0  0  0  0  0  0  0  0
    5.2568   -2.5172    2.9773 H   0  0  0  0  0  0  0  0  0  0  0  0
    6.6347   -1.9831    2.0569 H   0  0  0  0  0  0  0  0  0  0  0  0
    5.2658    0.0921    2.7472 H   0  0  0  0  0  0  0  0  0  0  0  0
    4.3012    0.6387    1.3665 H   0  0  0  0  0  0  0  0  0  0  0  0
    3.3501   -0.9515    3.7433 H   0  0  0  0  0  0  0  0  0  0  0  0
    2.5235    0.3399    2.8878 H   0  0  0  0  0  0  0  0  0  0  0  0
    1.6112   -1.1407    1.4023 H   0  0  0  0  0  0  0  0  0  0  0  0
    1.2429   -2.5405    3.3099 H   0  0  0  0  0  0  0  0  0  0  0  0
    1.4171   -3.4766    1.8922 H   0  0  0  0  0  0  0  0  0  0  0  0
    2.0754   -3.2493    5.0206 H   0  0  0  0  0  0  0  0  0  0  0  0
    1.8181   -4.8740    4.4888 H   0  0  0  0  0  0  0  0  0  0  0  0
    4.6865   -4.4716    5.0772 H   0  0  0  0  0  0  0  0  0  0  0  0
    2.4205   -5.9883    6.6358 H   0  0  0  0  0  0  0  0  0  0  0  0
    4.2299   -6.3108    6.7061 H   0  0  0  0  0  0  0  0  0  0  0  0
    4.6268   -3.9510    7.4468 H   0  0  0  0  0  0  0  0  0  0  0  0
    2.8181   -3.6064    7.3830 H   0  0  0  0  0  0  0  0  0  0  0  0
    3.2284   -1.1618   -0.0739 H   0  0  0  0  0  0  0  0  0  0  0  0
    3.6936   -2.4614   -1.9675 H   0  0  0  0  0  0  0  0  0  0  0  0
    4.2449   -4.2018   -1.7762 H   0  0  0  0  0  0  0  0  0  0  0  0
    2.0607   -4.7966   -0.6821 H   0  0  0  0  0  0  0  0  0  0  0  0
    1.4879   -3.0632   -0.9063 H   0  0  0  0  0  0  0  0  0  0  0  0
    6.4553   -7.3884    1.8678 H   0  0  0  0  0  0  0  0  0  0  0  0
    6.2893   -9.7474    0.8967 H   0  0  0  0  0  0  0  0  0  0  0  0
    5.3524   -1.0711    0.4276 H   0  0  0  0  0  0  0  0  0  0  0  0
    4.2342  -10.8391    0.8832 H   0  0  0  0  0  0  0  0  0  0  0  0
  1 25  2  0
  1  2  1  0
  1 26  1  0
  2  3  2  0
  2 27  1  0
  3  4  1  0
  3 23  1  0
  4  5  1  0
  4 28  1  0
  4 29  1  0
  5 14  1  0
  5  6  1  0
  5 30  1  6
  6 20  1  0
  6  7  1  0
  6 31  1  6
  7  8  1  0
  7 32  1  0
  7 33  1  0
  8  9  1  0
  8 34  1  0
  8 35  1  0
  9 19  1  0
  9 10  1  0
  9 57  1  6
 10 11  1  0
 10 36  1  0
 10 37  1  0
 11 12  1  0
 11 38  1  0
 11 39  1  0
 12 13  1  0
 12 19  1  0
 12 40  1  6
 13 14  1  0
 13 41  1  0
 13 42  1  0
 14 15  1  0
 15 16  1  0
 15 43  1  0
 15 44  1  0
 16 18  1  0
 16 17  1  0
 16 45  1  0
 17 18  1  0
 17 46  1  0
 17 47  1  0
 18 48  1  0
 18 49  1  0
 19 20  1  0
 19 50  1  6
 20 22  1  0
 20 21  1  0
 21 22  1  0
 21 51  1  0
 21 52  1  0
 22 53  1  0
 22 54  1  0
 23 24  2  0
 23 55  1  0
 24 25  1  0
 24 56  1  0
 25 58  1  0
M  CHG  2   9   1  25   1
M  END
>  <i_m_ct_stereo_status>  (251) 
1

>  <s_m_source_file>  (251) 
/var/tmp/pbs.5076255.sched01/tmpavn81tjv/78c0r2i372.sdf

>  <i_m_source_file_index>  (251) 
21

>  <i_lp_mmshare_version>  (251) 
48012

>  <i_f3d_flags>  (251) 
0

>  <s_epik_input>  (251) 
W2NIXTFbY0hdbltjSF1bY0hdYzFbQ0gyXVtDQEhdKFtDQEhdMkMzNFtDSDJdW0NIMl00KU4oW0NIMl1bQ0hdNVtDSDJdW0NIMl01KVtDSDJdW0NAQEhdNltDQEhdM04oW0NIMl1bQ0gyXTIpW0NIMl1bQ0gyXTY=

>  <s_epik_cmdline>  (251) 
J2VwaWtfcHl0aG9uJywgJy1waHQnLCAnMi4wJywgJy1waCcsICc3LjAnLCAnLXRuJywgJzgnLCAnLW1hJywgJzIwMCcsICctaW1hZScsICc8aW5maWxlLm1hZT4nLCAnLW9tYWUnLCAnPG91dGZpbGUubWFlPic=

>  <r_epik_Ionization_Penalty>  (251) 
1.70849

>  <r_epik_Ionization_Penalty_Charging>  (251) 
0.924313

>  <r_epik_Ionization_Penalty_Neutral>  (251) 
0.784182

>  <r_epik_State_Penalty>  (251) 
2.42549

>  <r_epik_Charging_Adjusted_Penalty>  (251) 
3.34981

>  <i_epik_Tot_Q>  (251) 
2

>  <i_epik_Tot_abs_Q>  (251) 
2

>  <s_lp_Force_Field>  (251) 
OPLS3e

>  <r_lp_Energy>  (251) 
58.1866

>  <b_lp_Chiralities_Consistent>  (251) 
1

>  <s_lp_Variant>  (251) 
72:0-3

>  <s_i_glide_gridfile>  (251) 
pfpi4k_grid

>  <i_i_glide_lignum>  (251) 
21

>  <i_i_glide_rotatable_bonds>  (251) 
4

>  <r_i_docking_score>  (251) 
-3.33869

>  <r_i_glide_ligand_efficiency>  (251) 
-0.133548

>  <r_i_glide_ligand_efficiency_sa>  (251) 
-0.390496

>  <r_i_glide_ligand_efficiency_ln>  (251) 
-0.79137

>  <r_i_glide_gscore>  (251) 
-3.33869

>  <r_i_glide_lipo>  (251) 
-0.324518

>  <r_i_glide_hbond>  (251) 
-0.132602

>  <r_i_glide_metal>  (251) 
-0

>  <r_i_glide_rewards>  (251) 
-1.0942

>  <r_i_glide_evdw>  (251) 
-15.5342

>  <r_i_glide_ecoul>  (251) 
-10.4493

>  <r_i_glide_erotb>  (251) 
0.656731

>  <r_i_glide_esite>  (251) 
-0.1

>  <r_i_glide_emodel>  (251) 
-30.4743

>  <r_i_glide_energy>  (251) 
-25.9835

>  <r_i_glide_einternal>  (251) 
3.37267

>  <r_i_glide_intrahb_reward>  (251) 
-0

>  <i_i_glide_confnum>  (251) 
3

>  <i_i_glide_posenum>  (251) 
9

>  <r_i_glide_eff_state_penalty>  (251) 
0

>  <ligand_id>  (251) 
72

>  <original_smiles>  (251) 
c1cc(CC2C3CCN4CCC(CN2CC2CC2)C4C32CC2)ccn1

>  <smiles>  (251) 
[H]c1c(C([H])([H])C2([H])N(C([H])([H])C3([H])C([H])([H])C3([H])[H])C([H])([H])C3([H])C([H])([H])C([H])([H])[N+]4([H])C([H])([H])C([H])([H])C2([H])C2(C([H])([H])C2([H])[H])C34[H])c([H])c([H])[n+]([H])c1[H]

$$$$
72:2:2
     RDKit          3D

 58 63  0  0  1  0  0  0  0  0999 V2000
   -0.0082    0.5309    3.1215 C   0  0  0  0  0  0  0  0  0  0  0  0
    0.9669    0.4356    2.1044 C   0  0  0  0  0  0  0  0  0  0  0  0
    1.9156   -0.6281    2.1172 C   0  0  0  0  0  0  0  0  0  0  0  0
    2.9968   -0.6406    1.0191 C   0  0  0  0  0  0  0  0  0  0  0  0
    3.5652   -2.0314    0.5384 C   0  0  2  0  0  0  0  0  0  0  0  0
    4.6481   -2.5181    1.5930 C   0  0  2  0  0  0  0  0  0  0  0  0
    5.8073   -1.5637    1.9277 C   0  0  0  0  0  0  0  0  0  0  0  0
    6.8142   -1.5097    0.7973 C   0  0  0  0  0  0  0  0  0  0  0  0
    7.3162   -2.8680    0.4692 N   0  0  2  0  0  0  0  0  0  0  0  0
    8.0023   -2.8979   -0.8223 C   0  0  0  0  0  0  0  0  0  0  0  0
    6.9084   -3.2092   -1.8596 C   0  0  0  0  0  0  0  0  0  0  0  0
    5.8005   -3.9285   -1.0550 C   0  0  2  0  0  0  0  0  0  0  0  0
    4.3617   -3.4267   -1.2914 C   0  0  0  0  0  0  0  0  0  0  0  0
    4.1256   -2.0403   -0.8486 N   0  0  0  0  0  0  0  0  0  0  0  0
    3.3181   -1.4414   -1.9333 C   0  0  0  0  0  0  0  0  0  0  0  0
    4.2011   -0.7293   -2.9460 C   0  0  0  0  0  0  0  0  0  0  0  0
    3.5782    0.2567   -3.9296 C   0  0  0  0  0  0  0  0  0  0  0  0
    4.0867   -1.0680   -4.4154 C   0  0  0  0  0  0  0  0  0  0  0  0
    6.3035   -3.9292    0.3814 C   0  0  2  0  0  0  0  0  0  0  0  0
    5.2021   -3.9247    1.4255 C   0  0  0  0  0  0  0  0  0  0  0  0
    5.3949   -4.7658    2.6761 C   0  0  0  0  0  0  0  0  0  0  0  0
    4.3344   -5.1354    1.6748 C   0  0  0  0  0  0  0  0  0  0  0  0
    1.8007   -1.5941    3.1661 C   0  0  0  0  0  0  0  0  0  0  0  0
    0.8272   -1.4219    4.1673 C   0  0  0  0  0  0  0  0  0  0  0  0
   -0.0386   -0.3814    4.1126 N   0  0  0  0  0  0  0  0  0  0  0  0
   -0.7593    1.3103    3.1606 H   0  0  0  0  0  0  0  0  0  0  0  0
    0.9777    1.1740    1.3153 H   0  0  0  0  0  0  0  0  0  0  0  0
    2.5117   -0.1027    0.2359 H   0  0  0  0  0  0  0  0  0  0  0  0
    3.7839    0.0639    1.2819 H   0  0  0  0  0  0  0  0  0  0  0  0
    2.7278   -2.7275    0.5143 H   0  0  0  0  0  0  0  0  0  0  0  0
    4.1993   -2.5880    2.5595 H   0  0  0  0  0  0  0  0  0  0  0  0
    5.4926   -0.5707    2.2283 H   0  0  0  0  0  0  0  0  0  0  0  0
    6.2539   -1.9491    2.8443 H   0  0  0  0  0  0  0  0  0  0  0  0
    6.3364   -1.0452   -0.0618 H   0  0  0  0  0  0  0  0  0  0  0  0
    7.6406   -0.8702    1.0723 H   0  0  0  0  0  0  0  0  0  0  0  0
    8.5675   -1.9937   -1.0494 H   0  0  0  0  0  0  0  0  0  0  0  0
    8.7134   -3.7235   -0.8004 H   0  0  0  0  0  0  0  0  0  0  0  0
    6.5177   -2.2885   -2.2885 H   0  0  0  0  0  0  0  0  0  0  0  0
    7.3042   -3.8125   -2.6897 H   0  0  0  0  0  0  0  0  0  0  0  0
    5.7547   -4.9750   -1.3383 H   0  0  0  0  0  0  0  0  0  0  0  0
    4.1864   -3.5395   -2.3639 H   0  0  0  0  0  0  0  0  0  0  0  0
    3.6410   -4.1212   -0.8456 H   0  0  0  0  0  0  0  0  0  0  0  0
    2.6596   -2.1681   -2.4185 H   0  0  0  0  0  0  0  0  0  0  0  0
    2.6399   -0.6677   -1.6314 H   0  0  0  0  0  0  0  0  0  0  0  0
    5.1589   -0.3829   -2.5637 H   0  0  0  0  0  0  0  0  0  0  0  0
    2.5000    0.3952   -3.9266 H   0  0  0  0  0  0  0  0  0  0  0  0
    4.1504    1.1367   -4.2128 H   0  0  0  0  0  0  0  0  0  0  0  0
    4.9939   -1.0572   -5.0013 H   0  0  0  0  0  0  0  0  0  0  0  0
    3.3399   -1.8002   -4.7061 H   0  0  0  0  0  0  0  0  0  0  0  0
    6.8427   -4.8654    0.5180 H   0  0  0  0  0  0  0  0  0  0  0  0
    6.2728   -5.4078    2.7514 H   0  0  0  0  0  0  0  0  0  0  0  0
    5.0570   -4.3652    3.6359 H   0  0  0  0  0  0  0  0  0  0  0  0
    3.2950   -4.9700    1.9628 H   0  0  0  0  0  0  0  0  0  0  0  0
    4.5014   -6.0233    1.0672 H   0  0  0  0  0  0  0  0  0  0  0  0
    2.4075   -2.4753    3.2854 H   0  0  0  0  0  0  0  0  0  0  0  0
    0.7387   -2.1032    5.0032 H   0  0  0  0  0  0  0  0  0  0  0  0
    7.9600   -3.1172    1.2215 H   0  0  0  0  0  0  0  0  0  0  0  0
   -0.7444   -0.3008    4.8481 H   0  0  0  0  0  0  0  0  0  0  0  0
  1 25  2  0
  1  2  1  0
  1 26  1  0
  2  3  2  0
  2 27  1  0
  3  4  1  0
  3 23  1  0
  4  5  1  0
  4 28  1  0
  4 29  1  0
  5 14  1  0
  5  6  1  0
  5 30  1  6
  6 20  1  0
  6  7  1  0
  6 31  1  1
  7  8  1  0
  7 32  1  0
  7 33  1  0
  8  9  1  0
  8 34  1  0
  8 35  1  0
  9 19  1  0
  9 10  1  0
  9 57  1  1
 10 11  1  0
 10 36  1  0
 10 37  1  0
 11 12  1  0
 11 38  1  0
 11 39  1  0
 12 13  1  0
 12 19  1  0
 12 40  1  6
 13 14  1  0
 13 41  1  0
 13 42  1  0
 14 15  1  0
 15 16  1  0
 15 43  1  0
 15 44  1  0
 16 18  1  0
 16 17  1  0
 16 45  1  0
 17 18  1  0
 17 46  1  0
 17 47  1  0
 18 48  1  0
 18 49  1  0
 19 20  1  0
 19 50  1  1
 20 22  1  0
 20 21  1  0
 21 22  1  0
 21 51  1  0
 21 52  1  0
 22 53  1  0
 22 54  1  0
 23 24  2  0
 23 55  1  0
 24 25  1  0
 24 56  1  0
 25 58  1  0
M  CHG  2   9   1  25   1
M  END
>  <i_m_ct_stereo_status>  (252) 
1

>  <s_m_source_file>  (252) 
/var/tmp/pbs.5076255.sched01/tmpavn81tjv/78c0r2i372.sdf

>  <i_m_source_file_index>  (252) 
21

>  <i_lp_mmshare_version>  (252) 
48012

>  <i_f3d_flags>  (252) 
0

>  <s_epik_input>  (252) 
W2NIXTFbY0hdbltjSF1bY0hdYzFbQ0gyXVtDQEhdKFtDQEhdMkMzNFtDSDJdW0NIMl00KU4oW0NIMl1bQ0hdNVtDSDJdW0NIMl01KVtDSDJdW0NAQEhdNltDQEhdM04oW0NIMl1bQ0gyXTIpW0NIMl1bQ0gyXTY=

>  <s_epik_cmdline>  (252) 
J2VwaWtfcHl0aG9uJywgJy1waHQnLCAnMi4wJywgJy1waCcsICc3LjAnLCAnLXRuJywgJzgnLCAnLW1hJywgJzIwMCcsICctaW1hZScsICc8aW5maWxlLm1hZT4nLCAnLW9tYWUnLCAnPG91dGZpbGUubWFlPic=

>  <r_epik_Ionization_Penalty>  (252) 
1.70849

>  <r_epik_Ionization_Penalty_Charging>  (252) 
0.924313

>  <r_epik_Ionization_Penalty_Neutral>  (252) 
0.784182

>  <r_epik_State_Penalty>  (252) 
2.42549

>  <r_epik_Charging_Adjusted_Penalty>  (252) 
3.34981

>  <i_epik_Tot_Q>  (252) 
2

>  <i_epik_Tot_abs_Q>  (252) 
2

>  <s_lp_Force_Field>  (252) 
OPLS3e

>  <r_lp_Energy>  (252) 
58.1866

>  <b_lp_Chiralities_Consistent>  (252) 
1

>  <s_lp_Variant>  (252) 
72:0-3

>  <s_i_glide_gridfile>  (252) 
pfpi4k_grid

>  <i_i_glide_lignum>  (252) 
21

>  <i_i_glide_rotatable_bonds>  (252) 
4

>  <r_i_docking_score>  (252) 
-2.70833

>  <r_i_glide_ligand_efficiency>  (252) 
-0.108333

>  <r_i_glide_ligand_efficiency_sa>  (252) 
-0.316768

>  <r_i_glide_ligand_efficiency_ln>  (252) 
-0.641955

>  <r_i_glide_gscore>  (252) 
-2.70833

>  <r_i_glide_lipo>  (252) 
-0.543411

>  <r_i_glide_hbond>  (252) 
0

>  <r_i_glide_metal>  (252) 
-0

>  <r_i_glide_rewards>  (252) 
-1.0942

>  <r_i_glide_evdw>  (252) 
-23.1301

>  <r_i_glide_ecoul>  (252) 
-3.7039

>  <r_i_glide_erotb>  (252) 
0.656731

>  <r_i_glide_esite>  (252) 
-0.0153592

>  <r_i_glide_emodel>  (252) 
-29.4924

>  <r_i_glide_energy>  (252) 
-26.834

>  <r_i_glide_einternal>  (252) 
4.46807

>  <r_i_glide_intrahb_reward>  (252) 
-0

>  <i_i_glide_confnum>  (252) 
3

>  <i_i_glide_posenum>  (252) 
19

>  <r_i_glide_eff_state_penalty>  (252) 
0

>  <ligand_id>  (252) 
72

>  <original_smiles>  (252) 
c1cc(CC2C3CCN4CCC(CN2CC2CC2)C4C32CC2)ccn1

>  <smiles>  (252) 
[H]c1c(C([H])([H])C2([H])N(C([H])([H])C3([H])C([H])([H])C3([H])[H])C([H])([H])C3([H])C([H])([H])C([H])([H])[N+]4([H])C([H])([H])C([H])([H])C2([H])C2(C([H])([H])C2([H])[H])C34[H])c([H])c([H])[n+]([H])c1[H]

$$$$
73:0:0
     RDKit          3D

 63 69  0  0  1  0  0  0  0  0999 V2000
    4.0270   -1.8190    0.9111 C   0  0  0  0  0  0  0  0  0  0  0  0
    4.2052   -3.0805    0.0248 C   0  0  2  0  0  0  0  0  0  0  0  0
    2.9197   -3.9570    0.2464 C   0  0  1  0  0  0  0  0  0  0  0  0
    1.9745   -3.8110   -0.7959 O   0  0  0  0  0  0  0  0  0  0  0  0
    3.1483   -5.4543    0.4395 C   0  0  0  0  0  0  0  0  0  0  0  0
    3.8974   -5.6447    1.7496 C   0  0  2  0  0  0  0  0  0  0  0  0
    5.1763   -4.7913    1.7740 C   0  0  2  0  0  0  0  0  0  0  0  0
    5.4627   -3.9178    0.5084 C   0  0  2  0  0  0  0  0  0  0  0  0
    6.7409   -3.0657    0.7806 C   0  0  1  0  0  0  0  0  0  0  0  0
    8.0456   -3.8433    0.9060 C   0  0  0  0  0  0  0  0  0  0  0  0
    9.0318   -2.7765    0.4713 C   0  0  0  0  0  0  0  0  0  0  0  0
   10.1672   -2.7362    0.9291 O   0  0  0  0  0  0  0  0  0  0  0  0
    8.4401   -1.8538   -0.2592 O   0  0  0  0  0  0  0  0  0  0  0  0
    7.0934   -2.1198   -0.3612 C   0  0  1  0  0  0  0  0  0  0  0  0
    6.8474   -2.7626   -1.5420 O   0  0  0  0  0  0  0  0  0  0  0  0
    5.6833   -2.2242   -2.1090 C   0  0  1  0  0  0  0  0  0  0  0  0
    5.3527   -2.9997   -3.3618 C   0  0  0  0  0  0  0  0  0  0  0  0
    4.3630   -3.7471   -2.5444 C   0  0  0  0  0  0  0  0  0  0  0  0
    4.3582   -2.6684   -1.4820 C   0  0  1  0  0  0  0  0  0  0  0  0
    3.3936   -1.6544   -1.7323 O   0  0  0  0  0  0  0  0  0  0  0  0
    6.1822   -5.8885    1.9822 C   0  0  1  0  0  0  0  0  0  0  0  0
    6.8958   -6.2147    3.0736 O   0  0  0  0  0  0  0  0  0  0  0  0
    5.5642   -6.8558    3.1006 C   0  0  1  0  0  0  0  0  0  0  0  0
    5.1353   -6.6651    4.5576 C   0  0  1  0  0  0  0  0  0  0  0  0
    4.6759   -5.3652    4.7926 O   0  0  0  0  0  0  0  0  0  0  0  0
    4.0853   -7.6453    5.0800 C   0  0  0  0  0  0  0  0  0  0  0  0
    2.8388   -7.6016    4.2176 C   0  0  0  0  0  0  0  0  0  0  0  0
    3.2147   -7.9632    2.7880 C   0  0  1  0  0  0  0  0  0  0  0  0
    2.0157   -7.9339    2.0330 O   0  0  0  0  0  0  0  0  0  0  0  0
    4.3500   -7.0899    2.1377 C   0  0  1  0  0  0  0  0  0  0  0  0
    4.7319   -7.9364    0.8847 C   0  0  0  0  0  0  0  0  0  0  0  0
    3.0561   -1.3493    0.7434 H   0  0  0  0  0  0  0  0  0  0  0  0
    4.7699   -1.0548    0.7145 H   0  0  0  0  0  0  0  0  0  0  0  0
    4.0725   -2.0742    1.9633 H   0  0  0  0  0  0  0  0  0  0  0  0
    2.4230   -3.6092    1.1534 H   0  0  0  0  0  0  0  0  0  0  0  0
    2.3067   -4.1865   -1.5845 H   0  0  0  0  0  0  0  0  0  0  0  0
    2.1865   -5.9550    0.4657 H   0  0  0  0  0  0  0  0  0  0  0  0
    3.6970   -5.8516   -0.4089 H   0  0  0  0  0  0  0  0  0  0  0  0
    3.2456   -5.2810    2.5358 H   0  0  0  0  0  0  0  0  0  0  0  0
    5.1694   -4.1388    2.6451 H   0  0  0  0  0  0  0  0  0  0  0  0
    5.7334   -4.6168   -0.2839 H   0  0  0  0  0  0  0  0  0  0  0  0
    6.6122   -2.4488    1.6750 H   0  0  0  0  0  0  0  0  0  0  0  0
    8.2598   -4.1103    1.9304 H   0  0  0  0  0  0  0  0  0  0  0  0
    8.1143   -4.7191    0.2692 H   0  0  0  0  0  0  0  0  0  0  0  0
    6.5933   -1.1573   -0.2885 H   0  0  0  0  0  0  0  0  0  0  0  0
    5.7004   -1.1551   -2.3100 H   0  0  0  0  0  0  0  0  0  0  0  0
    4.8125   -2.4158   -4.1125 H   0  0  0  0  0  0  0  0  0  0  0  0
    6.1561   -3.6203   -3.7614 H   0  0  0  0  0  0  0  0  0  0  0  0
    3.4362   -3.8811   -3.0912 H   0  0  0  0  0  0  0  0  0  0  0  0
    4.8055   -4.6845   -2.2059 H   0  0  0  0  0  0  0  0  0  0  0  0
    2.5650   -1.9363   -1.3692 H   0  0  0  0  0  0  0  0  0  0  0  0
    6.6778   -6.2739    1.0990 H   0  0  0  0  0  0  0  0  0  0  0  0
    6.0263   -6.7976    5.1502 H   0  0  0  0  0  0  0  0  0  0  0  0
    5.3691   -4.7785    4.5540 H   0  0  0  0  0  0  0  0  0  0  0  0
    4.5091   -8.6491    5.0744 H   0  0  0  0  0  0  0  0  0  0  0  0
    3.8513   -7.4119    6.1186 H   0  0  0  0  0  0  0  0  0  0  0  0
    2.1108   -8.3038    4.6147 H   0  0  0  0  0  0  0  0  0  0  0  0
    2.3869   -6.6167    4.2626 H   0  0  0  0  0  0  0  0  0  0  0  0
    3.5527   -9.0072    2.7994 H   0  0  0  0  0  0  0  0  0  0  0  0
    1.4948   -8.6899    2.2557 H   0  0  0  0  0  0  0  0  0  0  0  0
    5.2958   -8.8377    1.1375 H   0  0  0  0  0  0  0  0  0  0  0  0
    5.2796   -7.3778    0.1273 H   0  0  0  0  0  0  0  0  0  0  0  0
    3.8459   -8.2773    0.3514 H   0  0  0  0  0  0  0  0  0  0  0  0
  2  1  1  1
  1 32  1  0
  1 33  1  0
  1 34  1  0
  2  8  1  0
  2 19  1  0
  2  3  1  0
  3  4  1  0
  3  5  1  0
  3 35  1  1
  4 36  1  0
  5  6  1  0
  5 37  1  0
  5 38  1  0
  6 30  1  0
  6  7  1  0
  6 39  1  1
  7  8  1  0
  7 21  1  0
  7 40  1  1
  8  9  1  0
  8 41  1  6
  9 14  1  0
  9 10  1  0
  9 42  1  1
 10 11  1  0
 10 43  1  0
 10 44  1  0
 11 12  2  0
 11 13  1  0
 13 14  1  0
 14 15  1  0
 14 45  1  1
 15 16  1  0
 16 19  1  0
 16 17  1  0
 16 46  1  6
 17 18  1  0
 17 47  1  0
 17 48  1  0
 18 19  1  0
 18 49  1  0
 18 50  1  0
 19 20  1  6
 20 51  1  0
 21 23  1  0
 21 22  1  0
 21 52  1  6
 23 22  1  1
 23 30  1  0
 23 24  1  0
 24 25  1  0
 24 26  1  0
 24 53  1  1
 25 54  1  0
 26 27  1  0
 26 55  1  0
 26 56  1  0
 27 28  1  0
 27 57  1  0
 27 58  1  0
 28 29  1  0
 28 30  1  0
 28 59  1  1
 29 60  1  0
 30 31  1  6
 31 61  1  0
 31 62  1  0
 31 63  1  0
M  END
>  <i_m_ct_stereo_status>  (253) 
1

>  <s_m_source_file>  (253) 
/var/tmp/pbs.5076255.sched01/tmpavn81tjv/78c0r2i372.sdf

>  <i_m_source_file_index>  (253) 
22

>  <i_lp_mmshare_version>  (253) 
48012

>  <i_f3d_flags>  (253) 
0

>  <s_epik_input>  (253) 
W0NIMl0xW0NIMl1bQ0BdMihbT0hdKVtDQEhdMU9bQ0BIXShPQyg9TylbQ0gyXTMpW0NASF0zW0NAQEhdNFtDQF0yKFtDSDNdKVtDQEBIXShbT0hdKVtDSDJdW0NASF0oW0NASF00W0NAQEhdKE81KVtDQEBdNTY3KVtDQF03KFtDSDNdKVtDQEhdKFtPSF0pW0NIMl1bQ0gyXVtDQEBIXTZbT0hd

>  <s_epik_cmdline>  (253) 
J2VwaWtfcHl0aG9uJywgJy1waHQnLCAnMi4wJywgJy1waCcsICc3LjAnLCAnLXRuJywgJzgnLCAnLW1hJywgJzIwMCcsICctaW1hZScsICc8aW5maWxlLm1hZT4nLCAnLW9tYWUnLCAnPG91dGZpbGUubWFlPic=

>  <r_lp_tautomer_probability>  (253) 
1

>  <r_epik_Ionization_Penalty>  (253) 
1.0653e-06

>  <r_epik_Ionization_Penalty_Charging>  (253) 
0

>  <r_epik_Ionization_Penalty_Neutral>  (253) 
1.0653e-06

>  <r_epik_State_Penalty>  (253) 
-0

>  <r_epik_Charging_Adjusted_Penalty>  (253) 
0

>  <i_epik_Tot_Q>  (253) 
0

>  <i_epik_Tot_abs_Q>  (253) 
0

>  <s_epik_Chemistry_Notes>  (253) 
This compound has an ester and may undergo hydrolysis at high or low pH. This compound contains an acetal/aminal-like group ( X-CH(R)-Y where X, Y are N, S, or O) that may be acid/base labile, releasing an aldehyde.

>  <s_lp_Force_Field>  (253) 
OPLS3e

>  <r_lp_Energy>  (253) 
110.934

>  <b_lp_Chiralities_Consistent>  (253) 
1

>  <s_lp_Variant>  (253) 
73:0-1

>  <s_i_glide_gridfile>  (253) 
pfpi4k_grid

>  <i_i_glide_lignum>  (253) 
22

>  <i_i_glide_rotatable_bonds>  (253) 
4

>  <r_i_docking_score>  (253) 
-3.7949

>  <r_i_glide_ligand_efficiency>  (253) 
-0.122416

>  <r_i_glide_ligand_efficiency_sa>  (253) 
-0.384556

>  <r_i_glide_ligand_efficiency_ln>  (253) 
-0.855867

>  <r_i_glide_gscore>  (253) 
-3.7949

>  <r_i_glide_lipo>  (253) 
-0.579116

>  <r_i_glide_hbond>  (253) 
-0.193496

>  <r_i_glide_metal>  (253) 
-0

>  <r_i_glide_rewards>  (253) 
-0.932986

>  <r_i_glide_evdw>  (253) 
-24.7624

>  <r_i_glide_ecoul>  (253) 
-5.31407

>  <r_i_glide_erotb>  (253) 
0

>  <r_i_glide_esite>  (253) 
-0.0540718

>  <r_i_glide_emodel>  (253) 
-42.0945

>  <r_i_glide_energy>  (253) 
-30.0765

>  <r_i_glide_einternal>  (253) 
1.70722

>  <r_i_glide_intrahb_reward>  (253) 
-0.5

>  <i_i_glide_confnum>  (253) 
2

>  <i_i_glide_posenum>  (253) 
2

>  <r_i_glide_eff_state_penalty>  (253) 
0

>  <ligand_id>  (253) 
73

>  <original_smiles>  (253) 
CC12C(O)CC3C(C1C1CC(=O)OC1OC1CCC12O)C1OC12C(O)CCC(O)C32C

>  <smiles>  (253) 
[H]OC1([H])C([H])([H])C([H])([H])C([H])(O[H])C2(C([H])([H])[H])C3([H])C([H])([H])C([H])(O[H])C4(C([H])([H])[H])C([H])(C5([H])C([H])(OC(=O)C5([H])[H])OC5([H])C([H])([H])C([H])([H])C54O[H])C3([H])C3([H])OC132

$$$$
73:0:1
     RDKit          3D

 63 69  0  0  1  0  0  0  0  0999 V2000
    3.7736   -6.4681    4.1879 C   0  0  0  0  0  0  0  0  0  0  0  0
    2.8850   -6.3354    2.9218 C   0  0  2  0  0  0  0  0  0  0  0  0
    3.8551   -6.5835    1.6978 C   0  0  1  0  0  0  0  0  0  0  0  0
    3.8769   -7.9035    1.1734 O   0  0  0  0  0  0  0  0  0  0  0  0
    3.6493   -5.6287    0.5217 C   0  0  0  0  0  0  0  0  0  0  0  0
    4.0785   -4.2311    0.9919 C   0  0  2  0  0  0  0  0  0  0  0  0
    3.3313   -3.8117    2.2713 C   0  0  2  0  0  0  0  0  0  0  0  0
    2.3083   -4.8375    2.8587 C   0  0  2  0  0  0  0  0  0  0  0  0
    1.7537   -4.2813    4.2196 C   0  0  1  0  0  0  0  0  0  0  0  0
    0.9560   -2.9830    4.1553 C   0  0  0  0  0  0  0  0  0  0  0  0
    0.0131   -3.1314    5.3399 C   0  0  0  0  0  0  0  0  0  0  0  0
   -0.5906   -2.1704    5.8247 O   0  0  0  0  0  0  0  0  0  0  0  0
   -0.0567   -4.4053    5.7171 O   0  0  0  0  0  0  0  0  0  0  0  0
    0.7388   -5.2217    4.9139 C   0  0  1  0  0  0  0  0  0  0  0  0
   -0.0198   -5.8493    3.9407 O   0  0  0  0  0  0  0  0  0  0  0  0
    0.3919   -7.1799    3.7573 C   0  0  1  0  0  0  0  0  0  0  0  0
   -0.3997   -7.7978    2.5966 C   0  0  0  0  0  0  0  0  0  0  0  0
    0.7947   -7.4839    1.7004 C   0  0  0  0  0  0  0  0  0  0  0  0
    1.7028   -7.3789    2.9472 C   0  0  1  0  0  0  0  0  0  0  0  0
    2.2928   -8.6240    3.3024 O   0  0  0  0  0  0  0  0  0  0  0  0
    2.7187   -2.5419    1.7756 C   0  0  1  0  0  0  0  0  0  0  0  0
    3.0372   -1.2717    2.0778 O   0  0  0  0  0  0  0  0  0  0  0  0
    3.8413   -1.7559    0.9355 C   0  0  1  0  0  0  0  0  0  0  0  0
    5.2081   -1.1996    1.2866 C   0  0  1  0  0  0  0  0  0  0  0  0
    5.8110   -1.9550    2.3228 O   0  0  0  0  0  0  0  0  0  0  0  0
    6.2024   -1.0662    0.1513 C   0  0  0  0  0  0  0  0  0  0  0  0
    6.4082   -2.4026   -0.5332 C   0  0  0  0  0  0  0  0  0  0  0  0
    5.0648   -2.9027   -1.0597 C   0  0  1  0  0  0  0  0  0  0  0  0
    5.3250   -4.1262   -1.7065 O   0  0  0  0  0  0  0  0  0  0  0  0
    3.9167   -3.0222   -0.0025 C   0  0  1  0  0  0  0  0  0  0  0  0
    2.6531   -3.2026   -0.9059 C   0  0  0  0  0  0  0  0  0  0  0  0
    4.3617   -7.3853    4.1746 H   0  0  0  0  0  0  0  0  0  0  0  0
    3.2148   -6.4747    5.1178 H   0  0  0  0  0  0  0  0  0  0  0  0
    4.4953   -5.6480    4.2436 H   0  0  0  0  0  0  0  0  0  0  0  0
    4.8809   -6.4444    2.0312 H   0  0  0  0  0  0  0  0  0  0  0  0
    3.9793   -8.5067    1.8814 H   0  0  0  0  0  0  0  0  0  0  0  0
    4.2681   -5.9616   -0.3121 H   0  0  0  0  0  0  0  0  0  0  0  0
    2.6214   -5.6717    0.1793 H   0  0  0  0  0  0  0  0  0  0  0  0
    5.1351   -4.3045    1.2408 H   0  0  0  0  0  0  0  0  0  0  0  0
    4.0598   -3.5792    3.0529 H   0  0  0  0  0  0  0  0  0  0  0  0
    1.4781   -4.8409    2.1624 H   0  0  0  0  0  0  0  0  0  0  0  0
    2.5728   -4.1179    4.9241 H   0  0  0  0  0  0  0  0  0  0  0  0
    1.5692   -2.0893    4.2399 H   0  0  0  0  0  0  0  0  0  0  0  0
    0.3431   -2.9252    3.2566 H   0  0  0  0  0  0  0  0  0  0  0  0
    1.2165   -5.9424    5.5720 H   0  0  0  0  0  0  0  0  0  0  0  0
    0.3147   -7.7953    4.6571 H   0  0  0  0  0  0  0  0  0  0  0  0
   -0.5608   -8.8706    2.7112 H   0  0  0  0  0  0  0  0  0  0  0  0
   -1.3135   -7.2694    2.3255 H   0  0  0  0  0  0  0  0  0  0  0  0
    1.0608   -8.2832    1.0111 H   0  0  0  0  0  0  0  0  0  0  0  0
    0.6668   -6.5424    1.1677 H   0  0  0  0  0  0  0  0  0  0  0  0
    1.6169   -9.2731    3.2430 H   0  0  0  0  0  0  0  0  0  0  0  0
    1.6883   -2.5785    1.4280 H   0  0  0  0  0  0  0  0  0  0  0  0
    5.0585   -0.1952    1.7116 H   0  0  0  0  0  0  0  0  0  0  0  0
    5.2421   -1.9306    3.0642 H   0  0  0  0  0  0  0  0  0  0  0  0
    5.8132   -0.3334   -0.5559 H   0  0  0  0  0  0  0  0  0  0  0  0
    7.1504   -0.6690    0.5194 H   0  0  0  0  0  0  0  0  0  0  0  0
    7.1160   -2.2910   -1.3542 H   0  0  0  0  0  0  0  0  0  0  0  0
    6.8532   -3.1175    0.1541 H   0  0  0  0  0  0  0  0  0  0  0  0
    4.7504   -2.2035   -1.8346 H   0  0  0  0  0  0  0  0  0  0  0  0
    4.5251   -4.4941   -2.0265 H   0  0  0  0  0  0  0  0  0  0  0  0
    2.4086   -2.2680   -1.4214 H   0  0  0  0  0  0  0  0  0  0  0  0
    1.7711   -3.5490   -0.3842 H   0  0  0  0  0  0  0  0  0  0  0  0
    2.8020   -3.9367   -1.6942 H   0  0  0  0  0  0  0  0  0  0  0  0
  2  1  1  1
  1 32  1  0
  1 33  1  0
  1 34  1  0
  2  8  1  0
  2 19  1  0
  2  3  1  0
  3  4  1  0
  3  5  1  0
  3 35  1  1
  4 36  1  0
  5  6  1  0
  5 37  1  0
  5 38  1  0
  6 30  1  0
  6  7  1  0
  6 39  1  1
  7  8  1  0
  7 21  1  0
  7 40  1  1
  8  9  1  0
  8 41  1  6
  9 14  1  0
  9 10  1  0
  9 42  1  1
 10 11  1  0
 10 43  1  0
 10 44  1  0
 11 12  2  0
 11 13  1  0
 13 14  1  0
 14 15  1  0
 14 45  1  1
 15 16  1  0
 16 19  1  0
 16 17  1  0
 16 46  1  1
 17 18  1  0
 17 47  1  0
 17 48  1  0
 18 19  1  0
 18 49  1  0
 18 50  1  0
 19 20  1  1
 20 51  1  0
 21 23  1  0
 21 22  1  0
 21 52  1  6
 23 22  1  6
 23 30  1  0
 23 24  1  0
 24 25  1  0
 24 26  1  0
 24 53  1  1
 25 54  1  0
 26 27  1  0
 26 55  1  0
 26 56  1  0
 27 28  1  0
 27 57  1  0
 27 58  1  0
 28 29  1  0
 28 30  1  0
 28 59  1  6
 29 60  1  0
 30 31  1  6
 31 61  1  0
 31 62  1  0
 31 63  1  0
M  END
>  <i_m_ct_stereo_status>  (254) 
1

>  <s_m_source_file>  (254) 
/var/tmp/pbs.5076255.sched01/tmpavn81tjv/78c0r2i372.sdf

>  <i_m_source_file_index>  (254) 
22

>  <i_lp_mmshare_version>  (254) 
48012

>  <i_f3d_flags>  (254) 
0

>  <s_epik_input>  (254) 
W0NIMl0xW0NIMl1bQ0BdMihbT0hdKVtDQEhdMU9bQ0BIXShPQyg9TylbQ0gyXTMpW0NASF0zW0NAQEhdNFtDQF0yKFtDSDNdKVtDQEBIXShbT0hdKVtDSDJdW0NASF0oW0NASF00W0NAQEhdKE81KVtDQEBdNTY3KVtDQF03KFtDSDNdKVtDQEhdKFtPSF0pW0NIMl1bQ0gyXVtDQEBIXTZbT0hd

>  <s_epik_cmdline>  (254) 
J2VwaWtfcHl0aG9uJywgJy1waHQnLCAnMi4wJywgJy1waCcsICc3LjAnLCAnLXRuJywgJzgnLCAnLW1hJywgJzIwMCcsICctaW1hZScsICc8aW5maWxlLm1hZT4nLCAnLW9tYWUnLCAnPG91dGZpbGUubWFlPic=

>  <r_lp_tautomer_probability>  (254) 
1

>  <r_epik_Ionization_Penalty>  (254) 
1.0653e-06

>  <r_epik_Ionization_Penalty_Charging>  (254) 
0

>  <r_epik_Ionization_Penalty_Neutral>  (254) 
1.0653e-06

>  <r_epik_State_Penalty>  (254) 
-0

>  <r_epik_Charging_Adjusted_Penalty>  (254) 
0

>  <i_epik_Tot_Q>  (254) 
0

>  <i_epik_Tot_abs_Q>  (254) 
0

>  <s_epik_Chemistry_Notes>  (254) 
This compound has an ester and may undergo hydrolysis at high or low pH. This compound contains an acetal/aminal-like group ( X-CH(R)-Y where X, Y are N, S, or O) that may be acid/base labile, releasing an aldehyde.

>  <s_lp_Force_Field>  (254) 
OPLS3e

>  <r_lp_Energy>  (254) 
110.934

>  <b_lp_Chiralities_Consistent>  (254) 
1

>  <s_lp_Variant>  (254) 
73:0-1

>  <s_i_glide_gridfile>  (254) 
pfpi4k_grid

>  <i_i_glide_lignum>  (254) 
22

>  <i_i_glide_rotatable_bonds>  (254) 
4

>  <r_i_docking_score>  (254) 
-3.09224

>  <r_i_glide_ligand_efficiency>  (254) 
-0.0997496

>  <r_i_glide_ligand_efficiency_sa>  (254) 
-0.313351

>  <r_i_glide_ligand_efficiency_ln>  (254) 
-0.697394

>  <r_i_glide_gscore>  (254) 
-3.09224

>  <r_i_glide_lipo>  (254) 
-0.225877

>  <r_i_glide_hbond>  (254) 
-0.130268

>  <r_i_glide_metal>  (254) 
-0

>  <r_i_glide_rewards>  (254) 
-0.432986

>  <r_i_glide_evdw>  (254) 
-29.2691

>  <r_i_glide_ecoul>  (254) 
-5.50911

>  <r_i_glide_erotb>  (254) 
0

>  <r_i_glide_esite>  (254) 
-0.013285

>  <r_i_glide_emodel>  (254) 
-40.9582

>  <r_i_glide_energy>  (254) 
-34.7782

>  <r_i_glide_einternal>  (254) 
1.08354

>  <r_i_glide_intrahb_reward>  (254) 
-0

>  <i_i_glide_confnum>  (254) 
1

>  <i_i_glide_posenum>  (254) 
29

>  <r_i_glide_eff_state_penalty>  (254) 
0

>  <ligand_id>  (254) 
73

>  <original_smiles>  (254) 
CC12C(O)CC3C(C1C1CC(=O)OC1OC1CCC12O)C1OC12C(O)CCC(O)C32C

>  <smiles>  (254) 
[H]OC1([H])C([H])([H])C([H])([H])C([H])(O[H])C2(C([H])([H])[H])C3([H])C([H])([H])C([H])(O[H])C4(C([H])([H])[H])C([H])(C5([H])C([H])(OC(=O)C5([H])[H])OC5([H])C([H])([H])C([H])([H])C54O[H])C3([H])C3([H])OC132

$$$$
73:0:2
     RDKit          3D

 63 69  0  0  1  0  0  0  0  0999 V2000
    3.7731   -6.4689    4.1885 C   0  0  0  0  0  0  0  0  0  0  0  0
    2.8845   -6.3355    2.9227 C   0  0  2  0  0  0  0  0  0  0  0  0
    3.8533   -6.5850    1.6985 C   0  0  1  0  0  0  0  0  0  0  0  0
    3.8762   -7.9051    1.1741 O   0  0  0  0  0  0  0  0  0  0  0  0
    3.6472   -5.6290    0.5228 C   0  0  0  0  0  0  0  0  0  0  0  0
    4.0776   -4.2312    0.9924 C   0  0  2  0  0  0  0  0  0  0  0  0
    3.3331   -3.8073    2.2731 C   0  0  2  0  0  0  0  0  0  0  0  0
    2.3105   -4.8346    2.8603 C   0  0  2  0  0  0  0  0  0  0  0  0
    1.7552   -4.2789    4.2210 C   0  0  1  0  0  0  0  0  0  0  0  0
    0.9569   -2.9817    4.1556 C   0  0  0  0  0  0  0  0  0  0  0  0
    0.0124   -3.1294    5.3406 C   0  0  0  0  0  0  0  0  0  0  0  0
   -0.5918   -2.1704    5.8266 O   0  0  0  0  0  0  0  0  0  0  0  0
   -0.0576   -4.4024    5.7145 O   0  0  0  0  0  0  0  0  0  0  0  0
    0.7390   -5.2185    4.9138 C   0  0  1  0  0  0  0  0  0  0  0  0
   -0.0180   -5.8409    3.9386 O   0  0  0  0  0  0  0  0  0  0  0  0
    0.3897   -7.1748    3.7564 C   0  0  1  0  0  0  0  0  0  0  0  0
   -0.4014   -7.7957    2.5953 C   0  0  0  0  0  0  0  0  0  0  0  0
    0.7935   -7.4832    1.6999 C   0  0  0  0  0  0  0  0  0  0  0  0
    1.7012   -7.3783    2.9479 C   0  0  1  0  0  0  0  0  0  0  0  0
    2.2895   -8.6252    3.3040 O   0  0  0  0  0  0  0  0  0  0  0  0
    2.7149   -2.5411    1.7747 C   0  0  1  0  0  0  0  0  0  0  0  0
    3.0242   -1.2636    2.0613 O   0  0  0  0  0  0  0  0  0  0  0  0
    3.8448   -1.7582    0.9374 C   0  0  1  0  0  0  0  0  0  0  0  0
    5.2113   -1.2008    1.2945 C   0  0  1  0  0  0  0  0  0  0  0  0
    5.8388   -1.9539    2.3192 O   0  0  0  0  0  0  0  0  0  0  0  0
    6.1998   -1.0661    0.1531 C   0  0  0  0  0  0  0  0  0  0  0  0
    6.4079   -2.4010   -0.5328 C   0  0  0  0  0  0  0  0  0  0  0  0
    5.0648   -2.9042   -1.0602 C   0  0  1  0  0  0  0  0  0  0  0  0
    5.3257   -4.1309   -1.6993 O   0  0  0  0  0  0  0  0  0  0  0  0
    3.9165   -3.0229   -0.0032 C   0  0  1  0  0  0  0  0  0  0  0  0
    2.6519   -3.2036   -0.9070 C   0  0  0  0  0  0  0  0  0  0  0  0
    4.3609   -7.3861    4.1751 H   0  0  0  0  0  0  0  0  0  0  0  0
    3.2141   -6.4754    5.1182 H   0  0  0  0  0  0  0  0  0  0  0  0
    4.4948   -5.6482    4.2449 H   0  0  0  0  0  0  0  0  0  0  0  0
    4.8791   -6.4473    2.0314 H   0  0  0  0  0  0  0  0  0  0  0  0
    3.9773   -8.5086    1.8817 H   0  0  0  0  0  0  0  0  0  0  0  0
    4.2650   -5.9626   -0.3118 H   0  0  0  0  0  0  0  0  0  0  0  0
    2.6199   -5.6718    0.1802 H   0  0  0  0  0  0  0  0  0  0  0  0
    5.1335   -4.3127    1.2378 H   0  0  0  0  0  0  0  0  0  0  0  0
    4.0613   -3.5666    3.0544 H   0  0  0  0  0  0  0  0  0  0  0  0
    1.4806   -4.8392    2.1645 H   0  0  0  0  0  0  0  0  0  0  0  0
    2.5742   -4.1167    4.9260 H   0  0  0  0  0  0  0  0  0  0  0  0
    1.5702   -2.0880    4.2396 H   0  0  0  0  0  0  0  0  0  0  0  0
    0.3439   -2.9250    3.2567 H   0  0  0  0  0  0  0  0  0  0  0  0
    1.2153   -5.9405    5.5711 H   0  0  0  0  0  0  0  0  0  0  0  0
    0.3110   -7.7879    4.6579 H   0  0  0  0  0  0  0  0  0  0  0  0
   -0.5625   -8.8682    2.7122 H   0  0  0  0  0  0  0  0  0  0  0  0
   -1.3159   -7.2688    2.3246 H   0  0  0  0  0  0  0  0  0  0  0  0
    1.0591   -8.2825    1.0104 H   0  0  0  0  0  0  0  0  0  0  0  0
    0.6659   -6.5410    1.1673 H   0  0  0  0  0  0  0  0  0  0  0  0
    1.6134   -9.2739    3.2445 H   0  0  0  0  0  0  0  0  0  0  0  0
    1.6830   -2.5839    1.4278 H   0  0  0  0  0  0  0  0  0  0  0  0
    5.0581   -0.1934    1.7149 H   0  0  0  0  0  0  0  0  0  0  0  0
    5.9284   -2.8351    2.0458 H   0  0  0  0  0  0  0  0  0  0  0  0
    5.8128   -0.3341   -0.5570 H   0  0  0  0  0  0  0  0  0  0  0  0
    7.1479   -0.6676    0.5153 H   0  0  0  0  0  0  0  0  0  0  0  0
    7.1144   -2.2902   -1.3565 H   0  0  0  0  0  0  0  0  0  0  0  0
    6.8577   -3.1197    0.1469 H   0  0  0  0  0  0  0  0  0  0  0  0
    4.7508   -2.2070   -1.8370 H   0  0  0  0  0  0  0  0  0  0  0  0
    4.5275   -4.4944   -2.0292 H   0  0  0  0  0  0  0  0  0  0  0  0
    2.4069   -2.2681   -1.4215 H   0  0  0  0  0  0  0  0  0  0  0  0
    1.7697   -3.5495   -0.3852 H   0  0  0  0  0  0  0  0  0  0  0  0
    2.8004   -3.9380   -1.6958 H   0  0  0  0  0  0  0  0  0  0  0  0
  2  1  1  1
  1 32  1  0
  1 33  1  0
  1 34  1  0
  2  8  1  0
  2 19  1  0
  2  3  1  0
  3  4  1  0
  3  5  1  0
  3 35  1  1
  4 36  1  0
  5  6  1  0
  5 37  1  0
  5 38  1  0
  6 30  1  0
  6  7  1  0
  6 39  1  1
  7  8  1  0
  7 21  1  0
  7 40  1  1
  8  9  1  0
  8 41  1  6
  9 14  1  0
  9 10  1  0
  9 42  1  1
 10 11  1  0
 10 43  1  0
 10 44  1  0
 11 12  2  0
 11 13  1  0
 13 14  1  0
 14 15  1  0
 14 45  1  1
 15 16  1  0
 16 19  1  0
 16 17  1  0
 16 46  1  1
 17 18  1  0
 17 47  1  0
 17 48  1  0
 18 19  1  0
 18 49  1  0
 18 50  1  0
 19 20  1  1
 20 51  1  0
 21 23  1  0
 21 22  1  0
 21 52  1  6
 23 22  1  6
 23 30  1  0
 23 24  1  0
 24 25  1  0
 24 26  1  0
 24 53  1  1
 25 54  1  0
 26 27  1  0
 26 55  1  0
 26 56  1  0
 27 28  1  0
 27 57  1  0
 27 58  1  0
 28 29  1  0
 28 30  1  0
 28 59  1  6
 29 60  1  0
 30 31  1  6
 31 61  1  0
 31 62  1  0
 31 63  1  0
M  END
>  <i_m_ct_stereo_status>  (255) 
1

>  <s_m_source_file>  (255) 
/var/tmp/pbs.5076255.sched01/tmpavn81tjv/78c0r2i372.sdf

>  <i_m_source_file_index>  (255) 
22

>  <i_lp_mmshare_version>  (255) 
48012

>  <i_f3d_flags>  (255) 
0

>  <s_epik_input>  (255) 
W0NIMl0xW0NIMl1bQ0BdMihbT0hdKVtDQEhdMU9bQ0BIXShPQyg9TylbQ0gyXTMpW0NASF0zW0NAQEhdNFtDQF0yKFtDSDNdKVtDQEBIXShbT0hdKVtDSDJdW0NASF0oW0NASF00W0NAQEhdKE81KVtDQEBdNTY3KVtDQF03KFtDSDNdKVtDQEhdKFtPSF0pW0NIMl1bQ0gyXVtDQEBIXTZbT0hd

>  <s_epik_cmdline>  (255) 
J2VwaWtfcHl0aG9uJywgJy1waHQnLCAnMi4wJywgJy1waCcsICc3LjAnLCAnLXRuJywgJzgnLCAnLW1hJywgJzIwMCcsICctaW1hZScsICc8aW5maWxlLm1hZT4nLCAnLW9tYWUnLCAnPG91dGZpbGUubWFlPic=

>  <r_lp_tautomer_probability>  (255) 
1

>  <r_epik_Ionization_Penalty>  (255) 
1.0653e-06

>  <r_epik_Ionization_Penalty_Charging>  (255) 
0

>  <r_epik_Ionization_Penalty_Neutral>  (255) 
1.0653e-06

>  <r_epik_State_Penalty>  (255) 
-0

>  <r_epik_Charging_Adjusted_Penalty>  (255) 
0

>  <i_epik_Tot_Q>  (255) 
0

>  <i_epik_Tot_abs_Q>  (255) 
0

>  <s_epik_Chemistry_Notes>  (255) 
This compound has an ester and may undergo hydrolysis at high or low pH. This compound contains an acetal/aminal-like group ( X-CH(R)-Y where X, Y are N, S, or O) that may be acid/base labile, releasing an aldehyde.

>  <s_lp_Force_Field>  (255) 
OPLS3e

>  <r_lp_Energy>  (255) 
110.934

>  <b_lp_Chiralities_Consistent>  (255) 
1

>  <s_lp_Variant>  (255) 
73:0-1

>  <s_i_glide_gridfile>  (255) 
pfpi4k_grid

>  <i_i_glide_lignum>  (255) 
22

>  <i_i_glide_rotatable_bonds>  (255) 
4

>  <r_i_docking_score>  (255) 
-3.06988

>  <r_i_glide_ligand_efficiency>  (255) 
-0.0990285

>  <r_i_glide_ligand_efficiency_sa>  (255) 
-0.311086

>  <r_i_glide_ligand_efficiency_ln>  (255) 
-0.692353

>  <r_i_glide_gscore>  (255) 
-3.06988

>  <r_i_glide_lipo>  (255) 
-0.22738

>  <r_i_glide_hbond>  (255) 
-0.129868

>  <r_i_glide_metal>  (255) 
-0

>  <r_i_glide_rewards>  (255) 
-0.432986

>  <r_i_glide_evdw>  (255) 
-29.0258

>  <r_i_glide_ecoul>  (255) 
-5.4338

>  <r_i_glide_erotb>  (255) 
0

>  <r_i_glide_esite>  (255) 
-0.0132876

>  <r_i_glide_emodel>  (255) 
-40.7106

>  <r_i_glide_energy>  (255) 
-34.4596

>  <r_i_glide_einternal>  (255) 
0.764827

>  <r_i_glide_intrahb_reward>  (255) 
-0

>  <i_i_glide_confnum>  (255) 
1

>  <i_i_glide_posenum>  (255) 
1

>  <r_i_glide_eff_state_penalty>  (255) 
0

>  <ligand_id>  (255) 
73

>  <original_smiles>  (255) 
CC12C(O)CC3C(C1C1CC(=O)OC1OC1CCC12O)C1OC12C(O)CCC(O)C32C

>  <smiles>  (255) 
[H]OC1([H])C([H])([H])C([H])([H])C([H])(O[H])C2(C([H])([H])[H])C3([H])C([H])([H])C([H])(O[H])C4(C([H])([H])[H])C([H])(C5([H])C([H])(OC(=O)C5([H])[H])OC5([H])C([H])([H])C([H])([H])C54O[H])C3([H])C3([H])OC132

$$$$
74:0:0
     RDKit          3D

 44 49  0  0  1  0  0  0  0  0999 V2000
    2.2852   -3.9702    1.9174 C   0  0  0  0  0  0  0  0  0  0  0  0
    3.5895   -3.7147    1.8530 C   0  0  0  0  0  0  0  0  0  0  0  0
    4.6497   -4.7133    2.4359 C   0  0  0  0  0  0  0  0  0  0  0  0
    6.0631   -4.7031    1.8013 C   0  0  0  0  0  0  0  0  0  0  0  0
    7.2494   -5.4368    2.0043 C   0  0  0  0  0  0  0  0  0  0  0  0
    8.3642   -5.1656    1.1458 C   0  0  0  0  0  0  0  0  0  0  0  0
    8.3215   -4.1763    0.1126 C   0  0  0  0  0  0  0  0  0  0  0  0
    9.3940   -3.9958   -0.7076 O   0  0  0  0  0  0  0  0  0  0  0  0
    7.1484   -3.4045   -0.0746 C   0  0  0  0  0  0  0  0  0  0  0  0
    6.1668   -3.7892    0.7693 C   0  0  0  0  0  0  0  0  0  0  0  0
    5.0597   -3.0917    0.2311 C   0  0  2  0  0  0  0  0  0  0  0  0
    4.4403   -4.0674   -0.8616 C   0  0  0  0  0  0  0  0  0  0  0  0
    3.0972   -3.5668   -1.3717 C   0  0  0  0  0  0  0  0  0  0  0  0
    3.0586   -2.1096   -1.2115 N   0  0  2  0  0  0  0  0  0  0  0  0
    3.3091   -1.3755   -2.4716 C   0  0  0  0  0  0  0  0  0  0  0  0
    3.9454   -1.6338   -0.1011 C   0  0  2  0  0  0  0  0  0  0  0  0
    5.5449   -1.6974   -0.2730 C   0  0  1  0  0  0  0  0  0  0  0  0
    6.2572   -0.6481    0.5978 C   0  0  0  0  0  0  0  0  0  0  0  0
    6.0863   -0.9192    2.0837 C   0  0  0  0  0  0  0  0  0  0  0  0
    4.7365   -1.5556    2.4048 C   0  0  0  0  0  0  0  0  0  0  0  0
    4.1819   -2.4264    1.2525 C   0  0  1  0  0  0  0  0  0  0  0  0
    6.6685   -2.4173   -0.9453 O   0  0  0  0  0  0  0  0  0  0  0  0
    1.5985   -3.2340    1.5330 H   0  0  0  0  0  0  0  0  0  0  0  0
    1.8999   -4.8934    2.3305 H   0  0  0  0  0  0  0  0  0  0  0  0
    4.7696   -4.4626    3.4881 H   0  0  0  0  0  0  0  0  0  0  0  0
    4.2582   -5.7269    2.4028 H   0  0  0  0  0  0  0  0  0  0  0  0
    7.3085   -6.1974    2.7696 H   0  0  0  0  0  0  0  0  0  0  0  0
    9.2538   -5.7631    1.2789 H   0  0  0  0  0  0  0  0  0  0  0  0
    9.3562   -3.2738   -1.3228 H   0  0  0  0  0  0  0  0  0  0  0  0
    5.1203   -4.1433   -1.7138 H   0  0  0  0  0  0  0  0  0  0  0  0
    4.3302   -5.0886   -0.4889 H   0  0  0  0  0  0  0  0  0  0  0  0
    2.9244   -3.8573   -2.4033 H   0  0  0  0  0  0  0  0  0  0  0  0
    2.3021   -4.0010   -0.7805 H   0  0  0  0  0  0  0  0  0  0  0  0
    4.3040   -1.5896   -2.8611 H   0  0  0  0  0  0  0  0  0  0  0  0
    3.2319   -0.2978   -2.3237 H   0  0  0  0  0  0  0  0  0  0  0  0
    2.5745   -1.6482   -3.2297 H   0  0  0  0  0  0  0  0  0  0  0  0
    3.6373   -0.6202    0.1374 H   0  0  0  0  0  0  0  0  0  0  0  0
    7.3157   -0.5652    0.3475 H   0  0  0  0  0  0  0  0  0  0  0  0
    5.8332    0.3347    0.4089 H   0  0  0  0  0  0  0  0  0  0  0  0
    6.8645   -1.6190    2.3378 H   0  0  0  0  0  0  0  0  0  0  0  0
    6.2426   -0.0259    2.6844 H   0  0  0  0  0  0  0  0  0  0  0  0
    4.8254   -2.1076    3.3448 H   0  0  0  0  0  0  0  0  0  0  0  0
    4.0297   -0.7486    2.6051 H   0  0  0  0  0  0  0  0  0  0  0  0
    2.1071   -1.8275   -0.9646 H   0  0  0  0  0  0  0  0  0  0  0  0
  1  2  2  0
  1 23  1  0
  1 24  1  0
  2 21  1  0
  2  3  1  0
  3  4  1  0
  3 25  1  0
  3 26  1  0
  4 10  2  0
  4  5  1  0
  5  6  2  0
  5 27  1  0
  6  7  1  0
  6 28  1  0
  7  8  1  0
  7  9  2  0
  8 29  1  0
  9 22  1  0
  9 10  1  0
 10 11  1  0
 11 17  1  0
 11 21  1  0
 11 12  1  6
 12 13  1  0
 12 30  1  0
 12 31  1  0
 13 14  1  0
 13 32  1  0
 13 33  1  0
 14 15  1  0
 14 16  1  0
 14 44  1  1
 15 34  1  0
 15 35  1  0
 15 36  1  0
 16 21  1  0
 16 17  1  0
 16 37  1  1
 17 18  1  0
 17 22  1  6
 18 19  1  0
 18 38  1  0
 18 39  1  0
 19 20  1  0
 19 40  1  0
 19 41  1  0
 21 20  1  1
 20 42  1  0
 20 43  1  0
M  CHG  1  14   1
M  END
>  <i_m_ct_stereo_status>  (256) 
1

>  <s_m_source_file>  (256) 
/var/tmp/pbs.5076255.sched01/tmpavn81tjv/78c0r2i372.sdf

>  <i_m_source_file_index>  (256) 
23

>  <i_lp_mmshare_version>  (256) 
48012

>  <i_f3d_flags>  (256) 
0

>  <s_epik_input>  (256) 
W0NIMl0xW0NIMl1OKFtDSDNdKVtDQEhdKFtDQF0yM1tDQEBdMTQ1KVtDQEBdNShbQ0gyXVtDSDJdW0NIMl0yKUMoPVtDSDJdKVtDSDJdYzZjNGMoTzMpYyhbT0hdKVtjSF1bY0hdNg==

>  <s_epik_cmdline>  (256) 
J2VwaWtfcHl0aG9uJywgJy1waHQnLCAnMi4wJywgJy1waCcsICc3LjAnLCAnLXRuJywgJzgnLCAnLW1hJywgJzIwMCcsICctaW1hZScsICc8aW5maWxlLm1hZT4nLCAnLW9tYWUnLCAnPG91dGZpbGUubWFlPic=

>  <r_lp_tautomer_probability>  (256) 
1

>  <r_epik_Ionization_Penalty>  (256) 
0.0614579

>  <r_epik_Ionization_Penalty_Charging>  (256) 
0.0574715

>  <r_epik_Ionization_Penalty_Neutral>  (256) 
0.00398639

>  <r_epik_State_Penalty>  (256) 
0.0496391

>  <r_epik_Charging_Adjusted_Penalty>  (256) 
0.107111

>  <i_epik_Tot_Q>  (256) 
1

>  <i_epik_Tot_abs_Q>  (256) 
1

>  <s_lp_Force_Field>  (256) 
OPLS3e

>  <r_lp_Energy>  (256) 
224.736

>  <b_lp_Chiralities_Consistent>  (256) 
1

>  <s_lp_Variant>  (256) 
74:0-1

>  <s_i_glide_gridfile>  (256) 
pfpi4k_grid

>  <i_i_glide_lignum>  (256) 
23

>  <i_i_glide_rotatable_bonds>  (256) 
1

>  <r_i_docking_score>  (256) 
-5.16848

>  <r_i_glide_ligand_efficiency>  (256) 
-0.234931

>  <r_i_glide_ligand_efficiency_sa>  (256) 
-0.658286

>  <r_i_glide_ligand_efficiency_ln>  (256) 
-1.26337

>  <r_i_glide_gscore>  (256) 
-5.16848

>  <r_i_glide_lipo>  (256) 
-0.812806

>  <r_i_glide_hbond>  (256) 
-0.278601

>  <r_i_glide_metal>  (256) 
-0

>  <r_i_glide_rewards>  (256) 
-1.38829

>  <r_i_glide_evdw>  (256) 
-12.9449

>  <r_i_glide_ecoul>  (256) 
-13.0092

>  <r_i_glide_erotb>  (256) 
0

>  <r_i_glide_esite>  (256) 
-0.0901596

>  <r_i_glide_emodel>  (256) 
-35.4079

>  <r_i_glide_energy>  (256) 
-25.9541

>  <r_i_glide_einternal>  (256) 
0.0621625

>  <r_i_glide_intrahb_reward>  (256) 
-0

>  <i_i_glide_confnum>  (256) 
1

>  <i_i_glide_posenum>  (256) 
16

>  <r_i_glide_eff_state_penalty>  (256) 
0

>  <ligand_id>  (256) 
74

>  <original_smiles>  (256) 
C=C1Cc2ccc(O)c3c2C24CCN(C)C5C2(CCCC154)O3

>  <smiles>  (256) 
[H]Oc1c([H])c([H])c2c3c1OC14C([H])([H])C([H])([H])C([H])([H])C5(C(=C([H])[H])C2([H])[H])C31C([H])([H])C([H])([H])[N+]([H])(C([H])([H])[H])C45[H]

$$$$
74:0:1
     RDKit          3D

 44 49  0  0  1  0  0  0  0  0999 V2000
    8.3318   -3.7002    0.2335 C   0  0  0  0  0  0  0  0  0  0  0  0
    7.1289   -3.2003   -0.0890 C   0  0  0  0  0  0  0  0  0  0  0  0
    6.7251   -2.9054   -1.5838 C   0  0  0  0  0  0  0  0  0  0  0  0
    5.2194   -2.9743   -1.9531 C   0  0  0  0  0  0  0  0  0  0  0  0
    4.4595   -2.8119   -3.1302 C   0  0  0  0  0  0  0  0  0  0  0  0
    3.0463   -3.0500   -3.0824 C   0  0  0  0  0  0  0  0  0  0  0  0
    2.3787   -3.4241   -1.8586 C   0  0  0  0  0  0  0  0  0  0  0  0
    1.0544   -3.7371   -1.8256 O   0  0  0  0  0  0  0  0  0  0  0  0
    3.1212   -3.5275   -0.6661 C   0  0  0  0  0  0  0  0  0  0  0  0
    4.4343   -3.3285   -0.8693 C   0  0  0  0  0  0  0  0  0  0  0  0
    4.9676   -3.7543    0.3680 C   0  0  2  0  0  0  0  0  0  0  0  0
    5.2097   -5.3152    0.2044 C   0  0  0  0  0  0  0  0  0  0  0  0
    5.9990   -5.8883    1.3637 C   0  0  0  0  0  0  0  0  0  0  0  0
    5.7626   -5.0403    2.5323 N   0  0  2  0  0  0  0  0  0  0  0  0
    4.8066   -5.6224    3.4982 C   0  0  0  0  0  0  0  0  0  0  0  0
    5.4103   -3.6330    2.1688 C   0  0  2  0  0  0  0  0  0  0  0  0
    3.9849   -3.3205    1.4990 C   0  0  1  0  0  0  0  0  0  0  0  0
    3.5133   -1.8765    1.7658 C   0  0  0  0  0  0  0  0  0  0  0  0
    4.4035   -0.8528    1.0639 C   0  0  0  0  0  0  0  0  0  0  0  0
    5.8685   -1.3187    1.0074 C   0  0  0  0  0  0  0  0  0  0  0  0
    6.0304   -2.8605    0.9329 C   0  0  1  0  0  0  0  0  0  0  0  0
    2.8951   -3.8999    0.6711 O   0  0  0  0  0  0  0  0  0  0  0  0
    8.6004   -3.9175    1.2595 H   0  0  0  0  0  0  0  0  0  0  0  0
    9.0571   -3.9205   -0.5387 H   0  0  0  0  0  0  0  0  0  0  0  0
    7.0428   -1.8941   -1.8068 H   0  0  0  0  0  0  0  0  0  0  0  0
    7.2870   -3.5372   -2.2650 H   0  0  0  0  0  0  0  0  0  0  0  0
    4.9485   -2.5627   -4.0588 H   0  0  0  0  0  0  0  0  0  0  0  0
    2.4841   -2.9784   -4.0012 H   0  0  0  0  0  0  0  0  0  0  0  0
    0.7079   -3.9752   -2.6731 H   0  0  0  0  0  0  0  0  0  0  0  0
    4.2572   -5.8453    0.1518 H   0  0  0  0  0  0  0  0  0  0  0  0
    5.7202   -5.5500   -0.7254 H   0  0  0  0  0  0  0  0  0  0  0  0
    5.7482   -6.9294    1.5558 H   0  0  0  0  0  0  0  0  0  0  0  0
    7.0587   -5.8647    1.1347 H   0  0  0  0  0  0  0  0  0  0  0  0
    3.8262   -5.7485    3.0413 H   0  0  0  0  0  0  0  0  0  0  0  0
    4.6852   -4.9880    4.3782 H   0  0  0  0  0  0  0  0  0  0  0  0
    5.1444   -6.5976    3.8507 H   0  0  0  0  0  0  0  0  0  0  0  0
    5.5450   -3.0282    3.0549 H   0  0  0  0  0  0  0  0  0  0  0  0
    2.4656   -1.7320    1.4929 H   0  0  0  0  0  0  0  0  0  0  0  0
    3.5463   -1.6925    2.8399 H   0  0  0  0  0  0  0  0  0  0  0  0
    4.0334   -0.7347    0.0469 H   0  0  0  0  0  0  0  0  0  0  0  0
    4.3155    0.1237    1.5372 H   0  0  0  0  0  0  0  0  0  0  0  0
    6.3714   -0.8065    0.1841 H   0  0  0  0  0  0  0  0  0  0  0  0
    6.3733   -0.9702    1.9088 H   0  0  0  0  0  0  0  0  0  0  0  0
    6.6371   -4.9956    3.0219 H   0  0  0  0  0  0  0  0  0  0  0  0
  1  2  2  0
  1 23  1  0
  1 24  1  0
  2 21  1  0
  2  3  1  0
  3  4  1  0
  3 25  1  0
  3 26  1  0
  4 10  2  0
  4  5  1  0
  5  6  2  0
  5 27  1  0
  6  7  1  0
  6 28  1  0
  7  8  1  0
  7  9  2  0
  8 29  1  0
  9 22  1  0
  9 10  1  0
 10 11  1  0
 11 17  1  0
 11 21  1  0
 11 12  1  6
 12 13  1  0
 12 30  1  0
 12 31  1  0
 13 14  1  0
 13 32  1  0
 13 33  1  0
 14 15  1  0
 14 16  1  0
 14 44  1  1
 15 34  1  0
 15 35  1  0
 15 36  1  0
 16 21  1  0
 16 17  1  0
 16 37  1  1
 17 18  1  0
 17 22  1  1
 18 19  1  0
 18 38  1  0
 18 39  1  0
 19 20  1  0
 19 40  1  0
 19 41  1  0
 21 20  1  1
 20 42  1  0
 20 43  1  0
M  CHG  1  14   1
M  END
>  <i_m_ct_stereo_status>  (257) 
1

>  <s_m_source_file>  (257) 
/var/tmp/pbs.5076255.sched01/tmpavn81tjv/78c0r2i372.sdf

>  <i_m_source_file_index>  (257) 
23

>  <i_lp_mmshare_version>  (257) 
48012

>  <i_f3d_flags>  (257) 
0

>  <s_epik_input>  (257) 
W0NIMl0xW0NIMl1OKFtDSDNdKVtDQEhdKFtDQF0yM1tDQEBdMTQ1KVtDQEBdNShbQ0gyXVtDSDJdW0NIMl0yKUMoPVtDSDJdKVtDSDJdYzZjNGMoTzMpYyhbT0hdKVtjSF1bY0hdNg==

>  <s_epik_cmdline>  (257) 
J2VwaWtfcHl0aG9uJywgJy1waHQnLCAnMi4wJywgJy1waCcsICc3LjAnLCAnLXRuJywgJzgnLCAnLW1hJywgJzIwMCcsICctaW1hZScsICc8aW5maWxlLm1hZT4nLCAnLW9tYWUnLCAnPG91dGZpbGUubWFlPic=

>  <r_lp_tautomer_probability>  (257) 
1

>  <r_epik_Ionization_Penalty>  (257) 
0.0614579

>  <r_epik_Ionization_Penalty_Charging>  (257) 
0.0574715

>  <r_epik_Ionization_Penalty_Neutral>  (257) 
0.00398639

>  <r_epik_State_Penalty>  (257) 
0.0496391

>  <r_epik_Charging_Adjusted_Penalty>  (257) 
0.107111

>  <i_epik_Tot_Q>  (257) 
1

>  <i_epik_Tot_abs_Q>  (257) 
1

>  <s_lp_Force_Field>  (257) 
OPLS3e

>  <r_lp_Energy>  (257) 
224.736

>  <b_lp_Chiralities_Consistent>  (257) 
1

>  <s_lp_Variant>  (257) 
74:0-1

>  <s_i_glide_gridfile>  (257) 
pfpi4k_grid

>  <i_i_glide_lignum>  (257) 
23

>  <i_i_glide_rotatable_bonds>  (257) 
1

>  <r_i_docking_score>  (257) 
-4.42016

>  <r_i_glide_ligand_efficiency>  (257) 
-0.200916

>  <r_i_glide_ligand_efficiency_sa>  (257) 
-0.562975

>  <r_i_glide_ligand_efficiency_ln>  (257) 
-1.08045

>  <r_i_glide_gscore>  (257) 
-4.42016

>  <r_i_glide_lipo>  (257) 
-1.32355

>  <r_i_glide_hbond>  (257) 
0

>  <r_i_glide_metal>  (257) 
-0

>  <r_i_glide_rewards>  (257) 
-1.38829

>  <r_i_glide_evdw>  (257) 
-19.4779

>  <r_i_glide_ecoul>  (257) 
-4.89614

>  <r_i_glide_erotb>  (257) 
0

>  <r_i_glide_esite>  (257) 
0

>  <r_i_glide_emodel>  (257) 
-32.0927

>  <r_i_glide_energy>  (257) 
-24.374

>  <r_i_glide_einternal>  (257) 
0.588972

>  <r_i_glide_intrahb_reward>  (257) 
-0

>  <i_i_glide_confnum>  (257) 
2

>  <i_i_glide_posenum>  (257) 
14

>  <r_i_glide_eff_state_penalty>  (257) 
0

>  <ligand_id>  (257) 
74

>  <original_smiles>  (257) 
C=C1Cc2ccc(O)c3c2C24CCN(C)C5C2(CCCC154)O3

>  <smiles>  (257) 
[H]Oc1c([H])c([H])c2c3c1OC14C([H])([H])C([H])([H])C([H])([H])C5(C(=C([H])[H])C2([H])[H])C31C([H])([H])C([H])([H])[N+]([H])(C([H])([H])[H])C45[H]

$$$$
74:0:2
     RDKit          3D

 44 49  0  0  1  0  0  0  0  0999 V2000
    1.9042   -3.0512    2.7785 C   0  0  0  0  0  0  0  0  0  0  0  0
    3.2183   -3.2316    2.6037 C   0  0  0  0  0  0  0  0  0  0  0  0
    4.0689   -4.1205    3.5863 C   0  0  0  0  0  0  0  0  0  0  0  0
    5.3426   -4.8127    3.0234 C   0  0  0  0  0  0  0  0  0  0  0  0
    6.3248   -5.6879    3.5440 C   0  0  0  0  0  0  0  0  0  0  0  0
    7.3416   -6.1756    2.6611 C   0  0  0  0  0  0  0  0  0  0  0  0
    7.4244   -5.8027    1.2801 C   0  0  0  0  0  0  0  0  0  0  0  0
    8.4011   -6.3154    0.4807 O   0  0  0  0  0  0  0  0  0  0  0  0
    6.4557   -4.8873    0.7573 C   0  0  0  0  0  0  0  0  0  0  0  0
    5.5354   -4.5473    1.6821 C   0  0  0  0  0  0  0  0  0  0  0  0
    4.5748   -3.8739    0.8800 C   0  0  2  0  0  0  0  0  0  0  0  0
    3.5951   -5.0119    0.3686 C   0  0  0  0  0  0  0  0  0  0  0  0
    2.3797   -4.4248   -0.3177 C   0  0  0  0  0  0  0  0  0  0  0  0
    2.7167   -3.0973   -0.8448 N   0  0  2  0  0  0  0  0  0  0  0  0
    2.9483   -3.1224   -2.3051 C   0  0  0  0  0  0  0  0  0  0  0  0
    3.8334   -2.4677   -0.0991 C   0  0  2  0  0  0  0  0  0  0  0  0
    5.3227   -3.0617   -0.2244 C   0  0  1  0  0  0  0  0  0  0  0  0
    6.3926   -1.9945    0.0263 C   0  0  0  0  0  0  0  0  0  0  0  0
    6.3723   -1.5392    1.4760 C   0  0  0  0  0  0  0  0  0  0  0  0
    4.9589   -1.5073    2.0679 C   0  0  0  0  0  0  0  0  0  0  0  0
    4.0403   -2.5946    1.4675 C   0  0  1  0  0  0  0  0  0  0  0  0
    6.1226   -4.2916   -0.4657 O   0  0  0  0  0  0  0  0  0  0  0  0
    1.3319   -2.4402    2.0939 H   0  0  0  0  0  0  0  0  0  0  0  0
    1.3754   -3.5347    3.5923 H   0  0  0  0  0  0  0  0  0  0  0  0
    4.3972   -3.4737    4.3970 H   0  0  0  0  0  0  0  0  0  0  0  0
    3.4387   -4.8809    4.0420 H   0  0  0  0  0  0  0  0  0  0  0  0
    6.2916   -5.9977    4.5794 H   0  0  0  0  0  0  0  0  0  0  0  0
    8.0655   -6.8724    3.0595 H   0  0  0  0  0  0  0  0  0  0  0  0
    8.9453   -6.9791    0.8974 H   0  0  0  0  0  0  0  0  0  0  0  0
    4.1082   -5.6637   -0.3391 H   0  0  0  0  0  0  0  0  0  0  0  0
    3.2708   -5.6666    1.1849 H   0  0  0  0  0  0  0  0  0  0  0  0
    1.9214   -5.0550   -1.0696 H   0  0  0  0  0  0  0  0  0  0  0  0
    1.6527   -4.3248    0.4538 H   0  0  0  0  0  0  0  0  0  0  0  0
    3.7856   -3.7739   -2.5530 H   0  0  0  0  0  0  0  0  0  0  0  0
    3.1664   -2.1240   -2.6887 H   0  0  0  0  0  0  0  0  0  0  0  0
    2.0732   -3.4913   -2.8385 H   0  0  0  0  0  0  0  0  0  0  0  0
    3.8278   -1.4152   -0.3573 H   0  0  0  0  0  0  0  0  0  0  0  0
    7.3900   -2.3414   -0.2540 H   0  0  0  0  0  0  0  0  0  0  0  0
    6.1986   -1.1366   -0.6178 H   0  0  0  0  0  0  0  0  0  0  0  0
    6.9712   -2.2407    2.0422 H   0  0  0  0  0  0  0  0  0  0  0  0
    6.8585   -0.5845    1.5701 H   0  0  0  0  0  0  0  0  0  0  0  0
    5.0316   -1.5707    3.1564 H   0  0  0  0  0  0  0  0  0  0  0  0
    4.5200   -0.5294    1.8630 H   0  0  0  0  0  0  0  0  0  0  0  0
    1.9243   -2.4800   -0.7204 H   0  0  0  0  0  0  0  0  0  0  0  0
  1  2  2  0
  1 23  1  0
  1 24  1  0
  2 21  1  0
  2  3  1  0
  3  4  1  0
  3 25  1  0
  3 26  1  0
  4 10  2  0
  4  5  1  0
  5  6  2  0
  5 27  1  0
  6  7  1  0
  6 28  1  0
  7  8  1  0
  7  9  2  0
  8 29  1  0
  9 22  1  0
  9 10  1  0
 10 11  1  0
 11 17  1  0
 11 21  1  0
 11 12  1  6
 12 13  1  0
 12 30  1  0
 12 31  1  0
 13 14  1  0
 13 32  1  0
 13 33  1  0
 14 15  1  0
 14 16  1  0
 14 44  1  6
 15 34  1  0
 15 35  1  0
 15 36  1  0
 16 21  1  0
 16 17  1  0
 16 37  1  1
 17 18  1  0
 17 22  1  6
 18 19  1  0
 18 38  1  0
 18 39  1  0
 19 20  1  0
 19 40  1  0
 19 41  1  0
 21 20  1  1
 20 42  1  0
 20 43  1  0
M  CHG  1  14   1
M  END
>  <i_m_ct_stereo_status>  (258) 
1

>  <s_m_source_file>  (258) 
/var/tmp/pbs.5076255.sched01/tmpavn81tjv/78c0r2i372.sdf

>  <i_m_source_file_index>  (258) 
23

>  <i_lp_mmshare_version>  (258) 
48012

>  <i_f3d_flags>  (258) 
0

>  <s_epik_input>  (258) 
W0NIMl0xW0NIMl1OKFtDSDNdKVtDQEhdKFtDQF0yM1tDQEBdMTQ1KVtDQEBdNShbQ0gyXVtDSDJdW0NIMl0yKUMoPVtDSDJdKVtDSDJdYzZjNGMoTzMpYyhbT0hdKVtjSF1bY0hdNg==

>  <s_epik_cmdline>  (258) 
J2VwaWtfcHl0aG9uJywgJy1waHQnLCAnMi4wJywgJy1waCcsICc3LjAnLCAnLXRuJywgJzgnLCAnLW1hJywgJzIwMCcsICctaW1hZScsICc8aW5maWxlLm1hZT4nLCAnLW9tYWUnLCAnPG91dGZpbGUubWFlPic=

>  <r_lp_tautomer_probability>  (258) 
1

>  <r_epik_Ionization_Penalty>  (258) 
0.0614579

>  <r_epik_Ionization_Penalty_Charging>  (258) 
0.0574715

>  <r_epik_Ionization_Penalty_Neutral>  (258) 
0.00398639

>  <r_epik_State_Penalty>  (258) 
0.0496391

>  <r_epik_Charging_Adjusted_Penalty>  (258) 
0.107111

>  <i_epik_Tot_Q>  (258) 
1

>  <i_epik_Tot_abs_Q>  (258) 
1

>  <s_lp_Force_Field>  (258) 
OPLS3e

>  <r_lp_Energy>  (258) 
224.736

>  <b_lp_Chiralities_Consistent>  (258) 
1

>  <s_lp_Variant>  (258) 
74:0-1

>  <s_i_glide_gridfile>  (258) 
pfpi4k_grid

>  <i_i_glide_lignum>  (258) 
23

>  <i_i_glide_rotatable_bonds>  (258) 
1

>  <r_i_docking_score>  (258) 
-4.00592

>  <r_i_glide_ligand_efficiency>  (258) 
-0.182087

>  <r_i_glide_ligand_efficiency_sa>  (258) 
-0.510216

>  <r_i_glide_ligand_efficiency_ln>  (258) 
-0.979193

>  <r_i_glide_gscore>  (258) 
-4.00592

>  <r_i_glide_lipo>  (258) 
-0.51518

>  <r_i_glide_hbond>  (258) 
-0.2

>  <r_i_glide_metal>  (258) 
-0

>  <r_i_glide_rewards>  (258) 
-1.38829

>  <r_i_glide_evdw>  (258) 
-13.0486

>  <r_i_glide_ecoul>  (258) 
-8.18706

>  <r_i_glide_erotb>  (258) 
0

>  <r_i_glide_esite>  (258) 
-0.0219539

>  <r_i_glide_emodel>  (258) 
-28.4635

>  <r_i_glide_energy>  (258) 
-21.2357

>  <r_i_glide_einternal>  (258) 
0.000922936

>  <r_i_glide_intrahb_reward>  (258) 
-0

>  <i_i_glide_confnum>  (258) 
1

>  <i_i_glide_posenum>  (258) 
2

>  <r_i_glide_eff_state_penalty>  (258) 
0

>  <ligand_id>  (258) 
74

>  <original_smiles>  (258) 
C=C1Cc2ccc(O)c3c2C24CCN(C)C5C2(CCCC154)O3

>  <smiles>  (258) 
[H]Oc1c([H])c([H])c2c3c1OC14C([H])([H])C([H])([H])C([H])([H])C5(C(=C([H])[H])C2([H])[H])C31C([H])([H])C([H])([H])[N+]([H])(C([H])([H])[H])C45[H]

$$$$
74:1:0
     RDKit          3D

 43 48  0  0  1  0  0  0  0  0999 V2000
    8.4090   -3.9735    0.2889 C   0  0  0  0  0  0  0  0  0  0  0  0
    7.1901   -3.4550    0.0953 C   0  0  0  0  0  0  0  0  0  0  0  0
    6.7151   -2.9499   -1.3165 C   0  0  0  0  0  0  0  0  0  0  0  0
    5.1937   -3.0263   -1.6335 C   0  0  0  0  0  0  0  0  0  0  0  0
    4.3927   -2.7079   -2.7506 C   0  0  0  0  0  0  0  0  0  0  0  0
    2.9864   -2.9749   -2.6787 C   0  0  0  0  0  0  0  0  0  0  0  0
    2.3635   -3.5150   -1.5073 C   0  0  0  0  0  0  0  0  0  0  0  0
    1.0464   -3.8646   -1.5231 O   0  0  0  0  0  0  0  0  0  0  0  0
    3.1588   -3.7780   -0.3607 C   0  0  0  0  0  0  0  0  0  0  0  0
    4.4670   -3.5375   -0.5778 C   0  0  0  0  0  0  0  0  0  0  0  0
    5.0615   -4.1090    0.5726 C   0  0  2  0  0  0  0  0  0  0  0  0
    5.3255   -5.6418    0.2299 C   0  0  0  0  0  0  0  0  0  0  0  0
    6.1830   -6.3294    1.2999 C   0  0  0  0  0  0  0  0  0  0  0  0
    5.9435   -5.6807    2.5733 N   0  0  0  0  0  0  0  0  0  0  0  0
    7.0717   -5.8692    3.4851 C   0  0  0  0  0  0  0  0  0  0  0  0
    5.5767   -4.2567    2.3327 C   0  0  2  0  0  0  0  0  0  0  0  0
    4.1206   -3.8501    1.7739 C   0  0  1  0  0  0  0  0  0  0  0  0
    3.6503   -2.4690    2.2699 C   0  0  0  0  0  0  0  0  0  0  0  0
    4.4955   -1.3366    1.6872 C   0  0  0  0  0  0  0  0  0  0  0  0
    5.9643   -1.7673    1.5238 C   0  0  0  0  0  0  0  0  0  0  0  0
    6.1385   -3.2800    1.2094 C   0  0  1  0  0  0  0  0  0  0  0  0
    2.9917   -4.3208    0.9162 O   0  0  0  0  0  0  0  0  0  0  0  0
    8.7225   -4.3440    1.2562 H   0  0  0  0  0  0  0  0  0  0  0  0
    9.0881   -4.0801   -0.5435 H   0  0  0  0  0  0  0  0  0  0  0  0
    6.9950   -1.9003   -1.3858 H   0  0  0  0  0  0  0  0  0  0  0  0
    7.2652   -3.4629   -2.0995 H   0  0  0  0  0  0  0  0  0  0  0  0
    4.8346   -2.3266   -3.6567 H   0  0  0  0  0  0  0  0  0  0  0  0
    2.3854   -2.8090   -3.5576 H   0  0  0  0  0  0  0  0  0  0  0  0
    0.6961   -3.9449   -2.3979 H   0  0  0  0  0  0  0  0  0  0  0  0
    4.3863   -6.1832    0.1421 H   0  0  0  0  0  0  0  0  0  0  0  0
    5.8179   -5.7490   -0.7195 H   0  0  0  0  0  0  0  0  0  0  0  0
    5.9495   -7.3931    1.3938 H   0  0  0  0  0  0  0  0  0  0  0  0
    7.2381   -6.2374    1.0348 H   0  0  0  0  0  0  0  0  0  0  0  0
    6.8803   -5.4418    4.4703 H   0  0  0  0  0  0  0  0  0  0  0  0
    8.0050   -5.4519    3.1085 H   0  0  0  0  0  0  0  0  0  0  0  0
    7.2443   -6.9337    3.6336 H   0  0  0  0  0  0  0  0  0  0  0  0
    5.7126   -3.7706    3.2922 H   0  0  0  0  0  0  0  0  0  0  0  0
    2.5916   -2.3076    2.0616 H   0  0  0  0  0  0  0  0  0  0  0  0
    3.7224   -2.4455    3.3573 H   0  0  0  0  0  0  0  0  0  0  0  0
    4.0870   -1.0934    0.7031 H   0  0  0  0  0  0  0  0  0  0  0  0
    4.4062   -0.4329    2.2999 H   0  0  0  0  0  0  0  0  0  0  0  0
    6.4387   -1.1283    0.7796 H   0  0  0  0  0  0  0  0  0  0  0  0
    6.4806   -1.5482    2.4582 H   0  0  0  0  0  0  0  0  0  0  0  0
  1  2  2  0
  1 23  1  0
  1 24  1  0
  2 21  1  0
  2  3  1  0
  3  4  1  0
  3 25  1  0
  3 26  1  0
  4 10  2  0
  4  5  1  0
  5  6  2  0
  5 27  1  0
  6  7  1  0
  6 28  1  0
  7  8  1  0
  7  9  2  0
  8 29  1  0
  9 22  1  0
  9 10  1  0
 10 11  1  0
 11 17  1  0
 11 21  1  0
 11 12  1  6
 12 13  1  0
 12 30  1  0
 12 31  1  0
 13 14  1  0
 13 32  1  0
 13 33  1  0
 14 15  1  0
 14 16  1  0
 15 34  1  0
 15 35  1  0
 15 36  1  0
 16 21  1  0
 16 17  1  0
 16 37  1  1
 17 18  1  0
 17 22  1  6
 18 19  1  0
 18 38  1  0
 18 39  1  0
 19 20  1  0
 19 40  1  0
 19 41  1  0
 21 20  1  1
 20 42  1  0
 20 43  1  0
M  END
>  <i_m_ct_stereo_status>  (259) 
1

>  <s_m_source_file>  (259) 
/var/tmp/pbs.5076255.sched01/tmpavn81tjv/78c0r2i372.sdf

>  <i_m_source_file_index>  (259) 
24

>  <i_lp_mmshare_version>  (259) 
48012

>  <i_f3d_flags>  (259) 
0

>  <s_epik_input>  (259) 
W0NIMl0xW0NIMl1OKFtDSDNdKVtDQEhdKFtDQF0yM1tDQEBdMTQ1KVtDQEBdNShbQ0gyXVtDSDJdW0NIMl0yKUMoPVtDSDJdKVtDSDJdYzZjNGMoTzMpYyhbT0hdKVtjSF1bY0hdNg==

>  <s_epik_cmdline>  (259) 
J2VwaWtfcHl0aG9uJywgJy1waHQnLCAnMi4wJywgJy1waCcsICc3LjAnLCAnLXRuJywgJzgnLCAnLW1hJywgJzIwMCcsICctaW1hZScsICc8aW5maWxlLm1hZT4nLCAnLW9tYWUnLCAnPG91dGZpbGUubWFlPic=

>  <r_lp_tautomer_probability>  (259) 
1

>  <r_epik_Ionization_Penalty>  (259) 
1.4119

>  <r_epik_Ionization_Penalty_Charging>  (259) 
0

>  <r_epik_Ionization_Penalty_Neutral>  (259) 
1.4119

>  <r_epik_State_Penalty>  (259) 
1.49374

>  <r_epik_Charging_Adjusted_Penalty>  (259) 
1.49374

>  <i_epik_Tot_Q>  (259) 
0

>  <i_epik_Tot_abs_Q>  (259) 
0

>  <s_lp_Force_Field>  (259) 
OPLS3e

>  <r_lp_Energy>  (259) 
217.439

>  <b_lp_Chiralities_Consistent>  (259) 
1

>  <s_lp_Variant>  (259) 
74:0-2

>  <s_i_glide_gridfile>  (259) 
pfpi4k_grid

>  <i_i_glide_lignum>  (259) 
24

>  <i_i_glide_rotatable_bonds>  (259) 
1

>  <r_i_docking_score>  (259) 
-3.89198

>  <r_i_glide_ligand_efficiency>  (259) 
-0.176908

>  <r_i_glide_ligand_efficiency_sa>  (259) 
-0.495703

>  <r_i_glide_ligand_efficiency_ln>  (259) 
-0.951341

>  <r_i_glide_gscore>  (259) 
-3.89198

>  <r_i_glide_lipo>  (259) 
-1.05376

>  <r_i_glide_hbond>  (259) 
0

>  <r_i_glide_metal>  (259) 
-0

>  <r_i_glide_rewards>  (259) 
-1.39517

>  <r_i_glide_evdw>  (259) 
-20.3085

>  <r_i_glide_ecoul>  (259) 
-2.85084

>  <r_i_glide_erotb>  (259) 
0

>  <r_i_glide_esite>  (259) 
0

>  <r_i_glide_emodel>  (259) 
-28.4871

>  <r_i_glide_energy>  (259) 
-23.1593

>  <r_i_glide_einternal>  (259) 
0.354031

>  <r_i_glide_intrahb_reward>  (259) 
-0

>  <i_i_glide_confnum>  (259) 
2

>  <i_i_glide_posenum>  (259) 
6

>  <r_i_glide_eff_state_penalty>  (259) 
0

>  <ligand_id>  (259) 
74

>  <original_smiles>  (259) 
C=C1Cc2ccc(O)c3c2C24CCN(C)C5C2(CCCC154)O3

>  <smiles>  (259) 
[H]Oc1c([H])c([H])c2c3c1OC14C([H])([H])C([H])([H])C([H])([H])C5(C(=C([H])[H])C2([H])[H])C1([H])N(C([H])([H])[H])C([H])([H])C([H])([H])C345

$$$$
74:1:1
     RDKit          3D

 43 48  0  0  1  0  0  0  0  0999 V2000
    6.4241   -6.0137    2.4724 C   0  0  0  0  0  0  0  0  0  0  0  0
    5.9756   -4.9147    1.8444 C   0  0  0  0  0  0  0  0  0  0  0  0
    6.7074   -4.3397    0.5838 C   0  0  0  0  0  0  0  0  0  0  0  0
    5.8540   -3.5940   -0.4846 C   0  0  0  0  0  0  0  0  0  0  0  0
    6.0989   -2.9860   -1.7323 C   0  0  0  0  0  0  0  0  0  0  0  0
    4.9846   -2.4416   -2.4602 C   0  0  0  0  0  0  0  0  0  0  0  0
    3.6446   -2.4650   -1.9455 C   0  0  0  0  0  0  0  0  0  0  0  0
    2.6258   -1.9214   -2.6733 O   0  0  0  0  0  0  0  0  0  0  0  0
    3.3959   -3.0420   -0.6791 C   0  0  0  0  0  0  0  0  0  0  0  0
    4.5153   -3.5688   -0.1304 C   0  0  0  0  0  0  0  0  0  0  0  0
    3.9868   -4.2791    0.9754 C   0  0  2  0  0  0  0  0  0  0  0  0
    3.6108   -5.7263    0.4231 C   0  0  0  0  0  0  0  0  0  0  0  0
    3.2266   -6.6868    1.5538 C   0  0  0  0  0  0  0  0  0  0  0  0
    2.6497   -5.9177    2.6390 N   0  0  0  0  0  0  0  0  0  0  0  0
    2.8081   -6.6140    3.9161 C   0  0  0  0  0  0  0  0  0  0  0  0
    3.2455   -4.5532    2.6224 C   0  0  2  0  0  0  0  0  0  0  0  0
    2.8124   -3.4365    1.5522 C   0  0  1  0  0  0  0  0  0  0  0  0
    2.8869   -1.9959    2.0850 C   0  0  0  0  0  0  0  0  0  0  0  0
    4.3249   -1.5610    2.3378 C   0  0  0  0  0  0  0  0  0  0  0  0
    5.1742   -2.7392    2.8339 C   0  0  0  0  0  0  0  0  0  0  0  0
    4.7298   -4.1118    2.2728 C   0  0  1  0  0  0  0  0  0  0  0  0
    2.3027   -3.2893    0.1604 O   0  0  0  0  0  0  0  0  0  0  0  0
    5.9096   -6.4249    3.3304 H   0  0  0  0  0  0  0  0  0  0  0  0
    7.2972   -6.5424    2.1075 H   0  0  0  0  0  0  0  0  0  0  0  0
    7.4502   -3.6278    0.9365 H   0  0  0  0  0  0  0  0  0  0  0  0
    7.2603   -5.1400    0.0981 H   0  0  0  0  0  0  0  0  0  0  0  0
    7.0967   -2.9645   -2.1571 H   0  0  0  0  0  0  0  0  0  0  0  0
    5.1509   -2.0168   -3.4309 H   0  0  0  0  0  0  0  0  0  0  0  0
    1.8664   -1.7499   -2.1290 H   0  0  0  0  0  0  0  0  0  0  0  0
    2.7649   -5.6481   -0.2592 H   0  0  0  0  0  0  0  0  0  0  0  0
    4.4253   -6.1602   -0.1589 H   0  0  0  0  0  0  0  0  0  0  0  0
    2.5075   -7.4322    1.2247 H   0  0  0  0  0  0  0  0  0  0  0  0
    4.1165   -7.2006    1.9066 H   0  0  0  0  0  0  0  0  0  0  0  0
    2.3332   -6.0819    4.7422 H   0  0  0  0  0  0  0  0  0  0  0  0
    3.8502   -6.7822    4.1894 H   0  0  0  0  0  0  0  0  0  0  0  0
    2.3297   -7.5890    3.8571 H   0  0  0  0  0  0  0  0  0  0  0  0
    3.0366   -4.1529    3.6064 H   0  0  0  0  0  0  0  0  0  0  0  0
    2.3753   -1.2953    1.4223 H   0  0  0  0  0  0  0  0  0  0  0  0
    2.3322   -1.9405    3.0222 H   0  0  0  0  0  0  0  0  0  0  0  0
    4.7326   -1.2109    1.3905 H   0  0  0  0  0  0  0  0  0  0  0  0
    4.3646   -0.7197    3.0301 H   0  0  0  0  0  0  0  0  0  0  0  0
    6.2169   -2.5229    2.6092 H   0  0  0  0  0  0  0  0  0  0  0  0
    5.1117   -2.7813    3.9201 H   0  0  0  0  0  0  0  0  0  0  0  0
  1  2  2  0
  1 23  1  0
  1 24  1  0
  2 21  1  0
  2  3  1  0
  3  4  1  0
  3 25  1  0
  3 26  1  0
  4 10  2  0
  4  5  1  0
  5  6  2  0
  5 27  1  0
  6  7  1  0
  6 28  1  0
  7  8  1  0
  7  9  2  0
  8 29  1  0
  9 22  1  0
  9 10  1  0
 10 11  1  0
 11 17  1  0
 11 21  1  0
 11 12  1  6
 12 13  1  0
 12 30  1  0
 12 31  1  0
 13 14  1  0
 13 32  1  0
 13 33  1  0
 14 15  1  0
 14 16  1  0
 15 34  1  0
 15 35  1  0
 15 36  1  0
 16 21  1  0
 16 17  1  0
 16 37  1  1
 17 18  1  0
 17 22  1  6
 18 19  1  0
 18 38  1  0
 18 39  1  0
 19 20  1  0
 19 40  1  0
 19 41  1  0
 21 20  1  1
 20 42  1  0
 20 43  1  0
M  END
>  <i_m_ct_stereo_status>  (260) 
1

>  <s_m_source_file>  (260) 
/var/tmp/pbs.5076255.sched01/tmpavn81tjv/78c0r2i372.sdf

>  <i_m_source_file_index>  (260) 
24

>  <i_lp_mmshare_version>  (260) 
48012

>  <i_f3d_flags>  (260) 
0

>  <s_epik_input>  (260) 
W0NIMl0xW0NIMl1OKFtDSDNdKVtDQEhdKFtDQF0yM1tDQEBdMTQ1KVtDQEBdNShbQ0gyXVtDSDJdW0NIMl0yKUMoPVtDSDJdKVtDSDJdYzZjNGMoTzMpYyhbT0hdKVtjSF1bY0hdNg==

>  <s_epik_cmdline>  (260) 
J2VwaWtfcHl0aG9uJywgJy1waHQnLCAnMi4wJywgJy1waCcsICc3LjAnLCAnLXRuJywgJzgnLCAnLW1hJywgJzIwMCcsICctaW1hZScsICc8aW5maWxlLm1hZT4nLCAnLW9tYWUnLCAnPG91dGZpbGUubWFlPic=

>  <r_lp_tautomer_probability>  (260) 
1

>  <r_epik_Ionization_Penalty>  (260) 
1.4119

>  <r_epik_Ionization_Penalty_Charging>  (260) 
0

>  <r_epik_Ionization_Penalty_Neutral>  (260) 
1.4119

>  <r_epik_State_Penalty>  (260) 
1.49374

>  <r_epik_Charging_Adjusted_Penalty>  (260) 
1.49374

>  <i_epik_Tot_Q>  (260) 
0

>  <i_epik_Tot_abs_Q>  (260) 
0

>  <s_lp_Force_Field>  (260) 
OPLS3e

>  <r_lp_Energy>  (260) 
217.439

>  <b_lp_Chiralities_Consistent>  (260) 
1

>  <s_lp_Variant>  (260) 
74:0-2

>  <s_i_glide_gridfile>  (260) 
pfpi4k_grid

>  <i_i_glide_lignum>  (260) 
24

>  <i_i_glide_rotatable_bonds>  (260) 
1

>  <r_i_docking_score>  (260) 
-3.30509

>  <r_i_glide_ligand_efficiency>  (260) 
-0.150231

>  <r_i_glide_ligand_efficiency_sa>  (260) 
-0.420954

>  <r_i_glide_ligand_efficiency_ln>  (260) 
-0.807884

>  <r_i_glide_gscore>  (260) 
-3.30509

>  <r_i_glide_lipo>  (260) 
-0.664073

>  <r_i_glide_hbond>  (260) 
-0.00668432

>  <r_i_glide_metal>  (260) 
-0

>  <r_i_glide_rewards>  (260) 
-1.39517

>  <r_i_glide_evdw>  (260) 
-18.8583

>  <r_i_glide_ecoul>  (260) 
-1.975

>  <r_i_glide_erotb>  (260) 
0

>  <r_i_glide_esite>  (260) 
0

>  <r_i_glide_emodel>  (260) 
-25.1289

>  <r_i_glide_energy>  (260) 
-20.8333

>  <r_i_glide_einternal>  (260) 
0.485374

>  <r_i_glide_intrahb_reward>  (260) 
-0

>  <i_i_glide_confnum>  (260) 
2

>  <i_i_glide_posenum>  (260) 
24

>  <r_i_glide_eff_state_penalty>  (260) 
0

>  <ligand_id>  (260) 
74

>  <original_smiles>  (260) 
C=C1Cc2ccc(O)c3c2C24CCN(C)C5C2(CCCC154)O3

>  <smiles>  (260) 
[H]Oc1c([H])c([H])c2c3c1OC14C([H])([H])C([H])([H])C([H])([H])C5(C(=C([H])[H])C2([H])[H])C1([H])N(C([H])([H])[H])C([H])([H])C([H])([H])C345

$$$$
74:1:2
     RDKit          3D

 43 48  0  0  1  0  0  0  0  0999 V2000
    4.3562   -5.6384    1.9855 C   0  0  0  0  0  0  0  0  0  0  0  0
    4.7837   -4.7444    1.0878 C   0  0  0  0  0  0  0  0  0  0  0  0
    4.7461   -5.0469   -0.4474 C   0  0  0  0  0  0  0  0  0  0  0  0
    4.5897   -3.8418   -1.4318 C   0  0  0  0  0  0  0  0  0  0  0  0
    4.4931   -3.6784   -2.8358 C   0  0  0  0  0  0  0  0  0  0  0  0
    4.2415   -2.3776   -3.3604 C   0  0  0  0  0  0  0  0  0  0  0  0
    4.1346   -1.2183   -2.5415 C   0  0  0  0  0  0  0  0  0  0  0  0
    3.8619   -0.0298   -3.1301 O   0  0  0  0  0  0  0  0  0  0  0  0
    4.2979   -1.3508   -1.1283 C   0  0  0  0  0  0  0  0  0  0  0  0
    4.4552   -2.6485   -0.7589 C   0  0  0  0  0  0  0  0  0  0  0  0
    4.3394   -2.5697    0.6486 C   0  0  2  0  0  0  0  0  0  0  0  0
    2.7876   -2.6883    0.9843 C   0  0  0  0  0  0  0  0  0  0  0  0
    2.5360   -2.8289    2.4868 C   0  0  0  0  0  0  0  0  0  0  0  0
    3.6077   -2.1621    3.2028 N   0  0  0  0  0  0  0  0  0  0  0  0
    3.7741   -2.7201    4.5451 C   0  0  0  0  0  0  0  0  0  0  0  0
    4.8448   -2.1962    2.3760 C   0  0  2  0  0  0  0  0  0  0  0  0
    5.0349   -1.2602    1.0811 C   0  0  1  0  0  0  0  0  0  0  0  0
    6.5033   -0.9025    0.8313 C   0  0  0  0  0  0  0  0  0  0  0  0
    7.3463   -2.0809    0.3879 C   0  0  0  0  0  0  0  0  0  0  0  0
    6.8717   -3.3636    1.0854 C   0  0  0  0  0  0  0  0  0  0  0  0
    5.3547   -3.3642    1.4209 C   0  0  1  0  0  0  0  0  0  0  0  0
    4.2790   -0.5472    0.0116 O   0  0  0  0  0  0  0  0  0  0  0  0
    4.3682   -5.4341    3.0457 H   0  0  0  0  0  0  0  0  0  0  0  0
    3.9506   -6.5897    1.6558 H   0  0  0  0  0  0  0  0  0  0  0  0
    5.6888   -5.5272   -0.6899 H   0  0  0  0  0  0  0  0  0  0  0  0
    3.9602   -5.7779   -0.6062 H   0  0  0  0  0  0  0  0  0  0  0  0
    4.5227   -4.5314   -3.4946 H   0  0  0  0  0  0  0  0  0  0  0  0
    4.0735   -2.2592   -4.4189 H   0  0  0  0  0  0  0  0  0  0  0  0
    3.4569    0.5990   -2.5478 H   0  0  0  0  0  0  0  0  0  0  0  0
    2.2753   -1.7892    0.6448 H   0  0  0  0  0  0  0  0  0  0  0  0
    2.3264   -3.5231    0.4558 H   0  0  0  0  0  0  0  0  0  0  0  0
    1.5843   -2.3916    2.7766 H   0  0  0  0  0  0  0  0  0  0  0  0
    2.5270   -3.8796    2.7570 H   0  0  0  0  0  0  0  0  0  0  0  0
    4.5348   -2.1899    5.1201 H   0  0  0  0  0  0  0  0  0  0  0  0
    4.0441   -3.7744    4.5332 H   0  0  0  0  0  0  0  0  0  0  0  0
    2.8413   -2.6261    5.0964 H   0  0  0  0  0  0  0  0  0  0  0  0
    5.6479   -1.9835    3.0704 H   0  0  0  0  0  0  0  0  0  0  0  0
    6.5983   -0.0578    0.1566 H   0  0  0  0  0  0  0  0  0  0  0  0
    6.8861   -0.6012    1.7967 H   0  0  0  0  0  0  0  0  0  0  0  0
    7.2265   -2.2013   -0.6845 H   0  0  0  0  0  0  0  0  0  0  0  0
    8.4048   -1.8903    0.5705 H   0  0  0  0  0  0  0  0  0  0  0  0
    7.1800   -4.2278    0.4881 H   0  0  0  0  0  0  0  0  0  0  0  0
    7.4033   -3.4901    2.0287 H   0  0  0  0  0  0  0  0  0  0  0  0
  1  2  2  0
  1 23  1  0
  1 24  1  0
  2 21  1  0
  2  3  1  0
  3  4  1  0
  3 25  1  0
  3 26  1  0
  4 10  2  0
  4  5  1  0
  5  6  2  0
  5 27  1  0
  6  7  1  0
  6 28  1  0
  7  8  1  0
  7  9  2  0
  8 29  1  0
  9 22  1  0
  9 10  1  0
 10 11  1  0
 11 17  1  0
 11 21  1  0
 11 12  1  6
 12 13  1  0
 12 30  1  0
 12 31  1  0
 13 14  1  0
 13 32  1  0
 13 33  1  0
 14 15  1  0
 14 16  1  0
 15 34  1  0
 15 35  1  0
 15 36  1  0
 16 21  1  0
 16 17  1  0
 16 37  1  1
 17 18  1  0
 17 22  1  1
 18 19  1  0
 18 38  1  0
 18 39  1  0
 19 20  1  0
 19 40  1  0
 19 41  1  0
 21 20  1  6
 20 42  1  0
 20 43  1  0
M  END
>  <i_m_ct_stereo_status>  (261) 
1

>  <s_m_source_file>  (261) 
/var/tmp/pbs.5076255.sched01/tmpavn81tjv/78c0r2i372.sdf

>  <i_m_source_file_index>  (261) 
24

>  <i_lp_mmshare_version>  (261) 
48012

>  <i_f3d_flags>  (261) 
0

>  <s_epik_input>  (261) 
W0NIMl0xW0NIMl1OKFtDSDNdKVtDQEhdKFtDQF0yM1tDQEBdMTQ1KVtDQEBdNShbQ0gyXVtDSDJdW0NIMl0yKUMoPVtDSDJdKVtDSDJdYzZjNGMoTzMpYyhbT0hdKVtjSF1bY0hdNg==

>  <s_epik_cmdline>  (261) 
J2VwaWtfcHl0aG9uJywgJy1waHQnLCAnMi4wJywgJy1waCcsICc3LjAnLCAnLXRuJywgJzgnLCAnLW1hJywgJzIwMCcsICctaW1hZScsICc8aW5maWxlLm1hZT4nLCAnLW9tYWUnLCAnPG91dGZpbGUubWFlPic=

>  <r_lp_tautomer_probability>  (261) 
1

>  <r_epik_Ionization_Penalty>  (261) 
1.4119

>  <r_epik_Ionization_Penalty_Charging>  (261) 
0

>  <r_epik_Ionization_Penalty_Neutral>  (261) 
1.4119

>  <r_epik_State_Penalty>  (261) 
1.49374

>  <r_epik_Charging_Adjusted_Penalty>  (261) 
1.49374

>  <i_epik_Tot_Q>  (261) 
0

>  <i_epik_Tot_abs_Q>  (261) 
0

>  <s_lp_Force_Field>  (261) 
OPLS3e

>  <r_lp_Energy>  (261) 
217.439

>  <b_lp_Chiralities_Consistent>  (261) 
1

>  <s_lp_Variant>  (261) 
74:0-2

>  <s_i_glide_gridfile>  (261) 
pfpi4k_grid

>  <i_i_glide_lignum>  (261) 
24

>  <i_i_glide_rotatable_bonds>  (261) 
1

>  <r_i_docking_score>  (261) 
-3.00888

>  <r_i_glide_ligand_efficiency>  (261) 
-0.136767

>  <r_i_glide_ligand_efficiency_sa>  (261) 
-0.383227

>  <r_i_glide_ligand_efficiency_ln>  (261) 
-0.73548

>  <r_i_glide_gscore>  (261) 
-3.00888

>  <r_i_glide_lipo>  (261) 
-0.552788

>  <r_i_glide_hbond>  (261) 
0

>  <r_i_glide_metal>  (261) 
-0

>  <r_i_glide_rewards>  (261) 
-1.39517

>  <r_i_glide_evdw>  (261) 
-19.4249

>  <r_i_glide_ecoul>  (261) 
-0.597868

>  <r_i_glide_erotb>  (261) 
0

>  <r_i_glide_esite>  (261) 
0

>  <r_i_glide_emodel>  (261) 
-23.5258

>  <r_i_glide_energy>  (261) 
-20.0228

>  <r_i_glide_einternal>  (261) 
0.812843

>  <r_i_glide_intrahb_reward>  (261) 
-0

>  <i_i_glide_confnum>  (261) 
1

>  <i_i_glide_posenum>  (261) 
13

>  <r_i_glide_eff_state_penalty>  (261) 
0

>  <ligand_id>  (261) 
74

>  <original_smiles>  (261) 
C=C1Cc2ccc(O)c3c2C24CCN(C)C5C2(CCCC154)O3

>  <smiles>  (261) 
[H]Oc1c([H])c([H])c2c3c1OC14C([H])([H])C([H])([H])C([H])([H])C5(C(=C([H])[H])C2([H])[H])C1([H])N(C([H])([H])[H])C([H])([H])C([H])([H])C345

$$$$
75:0:0
     RDKit          3D

 55 60  0  0  1  0  0  0  0  0999 V2000
    4.6551   -1.1972   -2.0708 C   0  0  0  0  0  0  0  0  0  0  0  0
    4.7337   -2.3491   -1.0331 C   0  0  0  0  0  0  0  0  0  0  0  0
    3.6669   -3.3585   -1.5353 C   0  0  0  0  0  0  0  0  0  0  0  0
    6.1243   -3.0790   -1.0557 C   0  0  1  0  0  0  0  0  0  0  0  0
    7.1960   -2.2687   -1.5233 O   0  0  0  0  0  0  0  0  0  0  0  0
    6.5458   -3.7247    0.2843 C   0  0  0  0  0  0  0  0  0  0  0  0
    5.3583   -4.0951    1.1900 C   0  0  1  0  0  0  0  0  0  0  0  0
    5.8200   -4.7832    2.3357 O   0  0  0  0  0  0  0  0  0  0  0  0
    4.4962   -2.8512    1.5915 C   0  0  1  0  0  0  0  0  0  0  0  0
    5.4082   -2.1195    2.3896 O   0  0  0  0  0  0  0  0  0  0  0  0
    5.0774   -0.7582    2.4784 C   0  0  1  0  0  0  0  0  0  0  0  0
    4.9543   -0.5329    0.9573 C   0  0  1  0  0  0  0  0  0  0  0  0
    6.2580   -0.3311    0.4781 O   0  0  0  0  0  0  0  0  0  0  0  0
    4.3185   -1.8457    0.4013 C   0  0  1  0  0  0  0  0  0  0  0  0
    3.8211   -0.4903    3.3878 C   0  0  1  0  0  0  0  0  0  0  0  0
    2.5150   -0.5791    2.5821 C   0  0  0  0  0  0  0  0  0  0  0  0
    2.0456   -2.0450    2.5000 C   0  0  2  0  0  0  0  0  0  0  0  0
    1.3383   -2.2670    3.8489 C   0  0  0  0  0  0  0  0  0  0  0  0
    2.5328   -2.4407    4.7457 C   0  0  2  0  0  0  0  0  0  0  0  0
    3.6892   -1.3703    4.6989 C   0  0  2  0  0  0  0  0  0  0  0  0
    3.7093   -0.4991    5.8076 O   0  0  0  0  0  0  0  0  0  0  0  0
    4.5518   -2.6247    4.8836 C   0  0  0  0  0  0  0  0  0  0  0  0
    3.5042   -3.3580    4.0068 C   0  0  1  0  0  0  0  0  0  0  0  0
    3.3844   -4.6288    4.4039 F   0  0  0  0  0  0  0  0  0  0  0  0
    3.1927   -3.1544    2.4702 C   0  0  2  0  0  0  0  0  0  0  0  0
    2.4868   -4.4145    1.9007 C   0  0  0  0  0  0  0  0  0  0  0  0
    4.8808   -1.5613   -3.0738 H   0  0  0  0  0  0  0  0  0  0  0  0
    5.3547   -0.3902   -1.8674 H   0  0  0  0  0  0  0  0  0  0  0  0
    3.6560   -0.7580   -2.0986 H   0  0  0  0  0  0  0  0  0  0  0  0
    3.6467   -4.2864   -0.9779 H   0  0  0  0  0  0  0  0  0  0  0  0
    3.8549   -3.6483   -2.5697 H   0  0  0  0  0  0  0  0  0  0  0  0
    2.6592   -2.9438   -1.4989 H   0  0  0  0  0  0  0  0  0  0  0  0
    6.0561   -3.8691   -1.8014 H   0  0  0  0  0  0  0  0  0  0  0  0
    7.9239   -2.8328   -1.7547 H   0  0  0  0  0  0  0  0  0  0  0  0
    7.1418   -4.6135    0.0739 H   0  0  0  0  0  0  0  0  0  0  0  0
    7.2064   -3.0506    0.8295 H   0  0  0  0  0  0  0  0  0  0  0  0
    4.7680   -4.8306    0.6565 H   0  0  0  0  0  0  0  0  0  0  0  0
    6.2997   -5.5497    2.0669 H   0  0  0  0  0  0  0  0  0  0  0  0
    5.9313   -0.2345    2.9125 H   0  0  0  0  0  0  0  0  0  0  0  0
    4.3992    0.3697    0.7028 H   0  0  0  0  0  0  0  0  0  0  0  0
    6.7559    0.2347    1.0618 H   0  0  0  0  0  0  0  0  0  0  0  0
    3.2583   -1.6412    0.2857 H   0  0  0  0  0  0  0  0  0  0  0  0
    3.9061    0.5613    3.6689 H   0  0  0  0  0  0  0  0  0  0  0  0
    1.7650    0.0323    3.0851 H   0  0  0  0  0  0  0  0  0  0  0  0
    2.5539   -0.1016    1.6094 H   0  0  0  0  0  0  0  0  0  0  0  0
    1.3480   -2.1394    1.6681 H   0  0  0  0  0  0  0  0  0  0  0  0
    0.6784   -1.4552    4.1604 H   0  0  0  0  0  0  0  0  0  0  0  0
    0.7202   -3.1671    3.8342 H   0  0  0  0  0  0  0  0  0  0  0  0
    2.2954   -2.7827    5.7557 H   0  0  0  0  0  0  0  0  0  0  0  0
    2.9782    0.0902    5.7048 H   0  0  0  0  0  0  0  0  0  0  0  0
    5.5861   -2.5838    4.5619 H   0  0  0  0  0  0  0  0  0  0  0  0
    4.5491   -2.9776    5.9174 H   0  0  0  0  0  0  0  0  0  0  0  0
    1.5582   -4.6358    2.4215 H   0  0  0  0  0  0  0  0  0  0  0  0
    3.0896   -5.3154    1.9886 H   0  0  0  0  0  0  0  0  0  0  0  0
    2.2324   -4.2786    0.8501 H   0  0  0  0  0  0  0  0  0  0  0  0
  1  2  1  0
  1 27  1  0
  1 28  1  0
  1 29  1  0
  2 14  1  0
  2  3  1  0
  2  4  1  0
  3 30  1  0
  3 31  1  0
  3 32  1  0
  4  5  1  0
  4  6  1  0
  4 33  1  6
  5 34  1  0
  6  7  1  0
  6 35  1  0
  6 36  1  0
  7  8  1  0
  7  9  1  0
  7 37  1  6
  8 38  1  0
  9 14  1  0
  9 25  1  0
  9 10  1  1
 10 11  1  0
 11 12  1  0
 11 15  1  0
 11 39  1  1
 12 13  1  0
 12 14  1  0
 12 40  1  1
 13 41  1  0
 14 42  1  6
 15 20  1  0
 15 16  1  0
 15 43  1  1
 16 17  1  0
 16 44  1  0
 16 45  1  0
 17 25  1  0
 17 18  1  0
 17 46  1  6
 18 19  1  0
 18 47  1  0
 18 48  1  0
 19 23  1  0
 19 20  1  0
 19 49  1  1
 20 21  1  1
 20 22  1  0
 21 50  1  0
 22 23  1  0
 22 51  1  0
 22 52  1  0
 23 24  1  1
 23 25  1  0
 25 26  1  6
 26 53  1  0
 26 54  1  0
 26 55  1  0
M  END
>  <i_m_ct_stereo_status>  (262) 
1

>  <s_m_source_file>  (262) 
/var/tmp/pbs.5076255.sched01/tmpavn81tjv/78c0r2i372.sdf

>  <i_m_source_file_index>  (262) 
25

>  <i_lp_mmshare_version>  (262) 
48012

>  <i_f3d_flags>  (262) 
0

>  <s_epik_input>  (262) 
W09IXVtDQEBIXTFbQ0gyXVtDQEhdKFtPSF0pQyhbQ0gzXSkoW0NIM10pW0NAQEhdKFtDQEBdMTIzKVtDQEhdKFtPSF0pW0NASF0oTzIpW0NAQEhdNFtDQEBdNShbT0hdKVtDQEBIXTZbQ0BdKEYpKFtDSDJdNSlbQ0BAXTMoW0NIM10pW0NASF0oW0NIMl00KVtDSDJdNg==

>  <s_epik_cmdline>  (262) 
J2VwaWtfcHl0aG9uJywgJy1waHQnLCAnMi4wJywgJy1waCcsICc3LjAnLCAnLXRuJywgJzgnLCAnLW1hJywgJzIwMCcsICctaW1hZScsICc8aW5maWxlLm1hZT4nLCAnLW9tYWUnLCAnPG91dGZpbGUubWFlPic=

>  <r_lp_tautomer_probability>  (262) 
1

>  <r_epik_Ionization_Penalty>  (262) 
5.28651e-07

>  <r_epik_Ionization_Penalty_Charging>  (262) 
0

>  <r_epik_Ionization_Penalty_Neutral>  (262) 
5.28651e-07

>  <r_epik_State_Penalty>  (262) 
-0

>  <r_epik_Charging_Adjusted_Penalty>  (262) 
0

>  <i_epik_Tot_Q>  (262) 
0

>  <i_epik_Tot_abs_Q>  (262) 
0

>  <s_lp_Force_Field>  (262) 
OPLS3e

>  <r_lp_Energy>  (262) 
103.526

>  <b_lp_Chiralities_Consistent>  (262) 
1

>  <s_lp_Variant>  (262) 
75:0-1

>  <s_i_glide_gridfile>  (262) 
pfpi4k_grid

>  <i_i_glide_lignum>  (262) 
25

>  <i_i_glide_rotatable_bonds>  (262) 
4

>  <r_i_docking_score>  (262) 
-3.94362

>  <r_i_glide_ligand_efficiency>  (262) 
-0.151678

>  <r_i_glide_ligand_efficiency_sa>  (262) 
-0.449345

>  <r_i_glide_ligand_efficiency_ln>  (262) 
-0.926146

>  <r_i_glide_gscore>  (262) 
-3.94362

>  <r_i_glide_lipo>  (262) 
-0.595471

>  <r_i_glide_hbond>  (262) 
0

>  <r_i_glide_metal>  (262) 
-0

>  <r_i_glide_rewards>  (262) 
-0.897002

>  <r_i_glide_evdw>  (262) 
-23.5131

>  <r_i_glide_ecoul>  (262) 
-8.50329

>  <r_i_glide_erotb>  (262) 
0

>  <r_i_glide_esite>  (262) 
0

>  <r_i_glide_emodel>  (262) 
-39.1243

>  <r_i_glide_energy>  (262) 
-32.0164

>  <r_i_glide_einternal>  (262) 
1.87882

>  <r_i_glide_intrahb_reward>  (262) 
-0

>  <i_i_glide_confnum>  (262) 
2

>  <i_i_glide_posenum>  (262) 
38

>  <r_i_glide_eff_state_penalty>  (262) 
0

>  <ligand_id>  (262) 
75

>  <original_smiles>  (262) 
CC1(C)C(O)CC(O)C23OC(C(O)C12)C1CC2CC4C1(O)CC4(F)C23C

>  <smiles>  (262) 
[H]OC1([H])C2([H])OC3(C([H])(O[H])C([H])([H])C([H])(O[H])C(C([H])([H])[H])(C([H])([H])[H])C13[H])C1(C([H])([H])[H])C3([H])C([H])([H])C2([H])C2(O[H])C([H])([H])C1(F)C2([H])C3([H])[H]

$$$$
75:0:1
     RDKit          3D

 55 60  0  0  1  0  0  0  0  0999 V2000
    3.1108   -2.2053   -2.6386 C   0  0  0  0  0  0  0  0  0  0  0  0
    4.3280   -2.6959   -1.8053 C   0  0  0  0  0  0  0  0  0  0  0  0
    4.9300   -3.7945   -2.6878 C   0  0  0  0  0  0  0  0  0  0  0  0
    5.4384   -1.6401   -1.6824 C   0  0  1  0  0  0  0  0  0  0  0  0
    4.9148   -0.3518   -1.8874 O   0  0  0  0  0  0  0  0  0  0  0  0
    6.3001   -1.7139   -0.4085 C   0  0  0  0  0  0  0  0  0  0  0  0
    6.3808   -3.1226    0.1569 C   0  0  1  0  0  0  0  0  0  0  0  0
    7.2879   -3.1510    1.2150 O   0  0  0  0  0  0  0  0  0  0  0  0
    5.0068   -3.6415    0.6188 C   0  0  1  0  0  0  0  0  0  0  0  0
    4.7233   -2.7564    1.6836 O   0  0  0  0  0  0  0  0  0  0  0  0
    3.3425   -2.6927    1.9448 C   0  0  1  0  0  0  0  0  0  0  0  0
    2.9425   -2.3975    0.4875 C   0  0  1  0  0  0  0  0  0  0  0  0
    3.0492   -0.9960    0.3240 O   0  0  0  0  0  0  0  0  0  0  0  0
    3.8910   -3.2570   -0.4045 C   0  0  1  0  0  0  0  0  0  0  0  0
    2.7745   -3.9957    2.6258 C   0  0  1  0  0  0  0  0  0  0  0  0
    2.3625   -5.0619    1.5961 C   0  0  0  0  0  0  0  0  0  0  0  0
    3.5866   -5.8930    1.1873 C   0  0  2  0  0  0  0  0  0  0  0  0
    3.7149   -6.9197    2.3267 C   0  0  0  0  0  0  0  0  0  0  0  0
    4.3485   -6.0576    3.3826 C   0  0  2  0  0  0  0  0  0  0  0  0
    3.6975   -4.6681    3.7275 C   0  0  2  0  0  0  0  0  0  0  0  0
    2.9750   -4.6582    4.9302 O   0  0  0  0  0  0  0  0  0  0  0  0
    5.1699   -4.2506    3.8648 C   0  0  0  0  0  0  0  0  0  0  0  0
    5.4323   -5.2318    2.6989 C   0  0  1  0  0  0  0  0  0  0  0  0
    6.6341   -5.7882    2.8438 F   0  0  0  0  0  0  0  0  0  0  0  0
    4.9696   -5.1136    1.2028 C   0  0  2  0  0  0  0  0  0  0  0  0
    5.8552   -5.9825    0.3296 C   0  0  0  0  0  0  0  0  0  0  0  0
    3.4199   -1.8723   -3.6297 H   0  0  0  0  0  0  0  0  0  0  0  0
    2.6120   -1.3578   -2.1825 H   0  0  0  0  0  0  0  0  0  0  0  0
    2.3689   -2.9988   -2.7736 H   0  0  0  0  0  0  0  0  0  0  0  0
    5.8269   -4.2308   -2.2928 H   0  0  0  0  0  0  0  0  0  0  0  0
    5.1816   -3.4417   -3.6830 H   0  0  0  0  0  0  0  0  0  0  0  0
    4.2183   -4.5886   -2.8247 H   0  0  0  0  0  0  0  0  0  0  0  0
    6.1152   -1.8025   -2.5075 H   0  0  0  0  0  0  0  0  0  0  0  0
    4.3464   -0.1591   -1.1426 H   0  0  0  0  0  0  0  0  0  0  0  0
    7.3240   -1.4516   -0.6591 H   0  0  0  0  0  0  0  0  0  0  0  0
    5.9641   -0.9937    0.3417 H   0  0  0  0  0  0  0  0  0  0  0  0
    6.8488   -3.7485   -0.5928 H   0  0  0  0  0  0  0  0  0  0  0  0
    6.9289   -2.6062    1.9005 H   0  0  0  0  0  0  0  0  0  0  0  0
    3.1505   -1.8411    2.6061 H   0  0  0  0  0  0  0  0  0  0  0  0
    1.8919   -2.6276    0.3047 H   0  0  0  0  0  0  0  0  0  0  0  0
    2.2614   -0.7498   -0.1595 H   0  0  0  0  0  0  0  0  0  0  0  0
    3.3424   -4.1554   -0.6770 H   0  0  0  0  0  0  0  0  0  0  0  0
    1.8406   -3.6755    3.0967 H   0  0  0  0  0  0  0  0  0  0  0  0
    1.6054   -5.6931    2.0582 H   0  0  0  0  0  0  0  0  0  0  0  0
    1.8305   -4.6662    0.7430 H   0  0  0  0  0  0  0  0  0  0  0  0
    3.3792   -6.3885    0.2368 H   0  0  0  0  0  0  0  0  0  0  0  0
    2.7767   -7.3757    2.6462 H   0  0  0  0  0  0  0  0  0  0  0  0
    4.3674   -7.7467    2.0470 H   0  0  0  0  0  0  0  0  0  0  0  0
    4.7168   -6.6012    4.2612 H   0  0  0  0  0  0  0  0  0  0  0  0
    3.5124   -5.1194    5.5612 H   0  0  0  0  0  0  0  0  0  0  0  0
    5.4211   -3.2031    3.7450 H   0  0  0  0  0  0  0  0  0  0  0  0
    5.6264   -4.5924    4.8010 H   0  0  0  0  0  0  0  0  0  0  0  0
    5.8298   -7.0309    0.6143 H   0  0  0  0  0  0  0  0  0  0  0  0
    6.9049   -5.7082    0.3551 H   0  0  0  0  0  0  0  0  0  0  0  0
    5.5023   -5.9197   -0.6998 H   0  0  0  0  0  0  0  0  0  0  0  0
  1  2  1  0
  1 27  1  0
  1 28  1  0
  1 29  1  0
  2 14  1  0
  2  3  1  0
  2  4  1  0
  3 30  1  0
  3 31  1  0
  3 32  1  0
  4  5  1  0
  4  6  1  0
  4 33  1  6
  5 34  1  0
  6  7  1  0
  6 35  1  0
  6 36  1  0
  7  8  1  0
  7  9  1  0
  7 37  1  6
  8 38  1  0
  9 14  1  0
  9 25  1  0
  9 10  1  1
 10 11  1  0
 11 12  1  0
 11 15  1  0
 11 39  1  1
 12 13  1  0
 12 14  1  0
 12 40  1  1
 13 41  1  0
 14 42  1  6
 15 20  1  0
 15 16  1  0
 15 43  1  1
 16 17  1  0
 16 44  1  0
 16 45  1  0
 17 25  1  0
 17 18  1  0
 17 46  1  6
 18 19  1  0
 18 47  1  0
 18 48  1  0
 19 23  1  0
 19 20  1  0
 19 49  1  1
 20 21  1  1
 20 22  1  0
 21 50  1  0
 22 23  1  0
 22 51  1  0
 22 52  1  0
 23 24  1  6
 23 25  1  0
 25 26  1  6
 26 53  1  0
 26 54  1  0
 26 55  1  0
M  END
>  <i_m_ct_stereo_status>  (263) 
1

>  <s_m_source_file>  (263) 
/var/tmp/pbs.5076255.sched01/tmpavn81tjv/78c0r2i372.sdf

>  <i_m_source_file_index>  (263) 
25

>  <i_lp_mmshare_version>  (263) 
48012

>  <i_f3d_flags>  (263) 
0

>  <s_epik_input>  (263) 
W09IXVtDQEBIXTFbQ0gyXVtDQEhdKFtPSF0pQyhbQ0gzXSkoW0NIM10pW0NAQEhdKFtDQEBdMTIzKVtDQEhdKFtPSF0pW0NASF0oTzIpW0NAQEhdNFtDQEBdNShbT0hdKVtDQEBIXTZbQ0BdKEYpKFtDSDJdNSlbQ0BAXTMoW0NIM10pW0NASF0oW0NIMl00KVtDSDJdNg==

>  <s_epik_cmdline>  (263) 
J2VwaWtfcHl0aG9uJywgJy1waHQnLCAnMi4wJywgJy1waCcsICc3LjAnLCAnLXRuJywgJzgnLCAnLW1hJywgJzIwMCcsICctaW1hZScsICc8aW5maWxlLm1hZT4nLCAnLW9tYWUnLCAnPG91dGZpbGUubWFlPic=

>  <r_lp_tautomer_probability>  (263) 
1

>  <r_epik_Ionization_Penalty>  (263) 
5.28651e-07

>  <r_epik_Ionization_Penalty_Charging>  (263) 
0

>  <r_epik_Ionization_Penalty_Neutral>  (263) 
5.28651e-07

>  <r_epik_State_Penalty>  (263) 
-0

>  <r_epik_Charging_Adjusted_Penalty>  (263) 
0

>  <i_epik_Tot_Q>  (263) 
0

>  <i_epik_Tot_abs_Q>  (263) 
0

>  <s_lp_Force_Field>  (263) 
OPLS3e

>  <r_lp_Energy>  (263) 
103.526

>  <b_lp_Chiralities_Consistent>  (263) 
1

>  <s_lp_Variant>  (263) 
75:0-1

>  <s_i_glide_gridfile>  (263) 
pfpi4k_grid

>  <i_i_glide_lignum>  (263) 
25

>  <i_i_glide_rotatable_bonds>  (263) 
4

>  <r_i_docking_score>  (263) 
-2.96767

>  <r_i_glide_ligand_efficiency>  (263) 
-0.114141

>  <r_i_glide_ligand_efficiency_sa>  (263) 
-0.338142

>  <r_i_glide_ligand_efficiency_ln>  (263) 
-0.696947

>  <r_i_glide_gscore>  (263) 
-2.96767

>  <r_i_glide_lipo>  (263) 
-0.335801

>  <r_i_glide_hbond>  (263) 
0

>  <r_i_glide_metal>  (263) 
-0

>  <r_i_glide_rewards>  (263) 
-1.41891

>  <r_i_glide_evdw>  (263) 
-11.0205

>  <r_i_glide_ecoul>  (263) 
-4.41285

>  <r_i_glide_erotb>  (263) 
0

>  <r_i_glide_esite>  (263) 
0

>  <r_i_glide_emodel>  (263) 
-25.0022

>  <r_i_glide_energy>  (263) 
-15.4334

>  <r_i_glide_einternal>  (263) 
1.36703

>  <r_i_glide_intrahb_reward>  (263) 
-0.5

>  <i_i_glide_confnum>  (263) 
2

>  <i_i_glide_posenum>  (263) 
7

>  <r_i_glide_eff_state_penalty>  (263) 
0

>  <ligand_id>  (263) 
75

>  <original_smiles>  (263) 
CC1(C)C(O)CC(O)C23OC(C(O)C12)C1CC2CC4C1(O)CC4(F)C23C

>  <smiles>  (263) 
[H]OC1([H])C2([H])OC3(C([H])(O[H])C([H])([H])C([H])(O[H])C(C([H])([H])[H])(C([H])([H])[H])C13[H])C1(C([H])([H])[H])C3([H])C([H])([H])C2([H])C2(O[H])C([H])([H])C1(F)C2([H])C3([H])[H]

$$$$
75:0:2
     RDKit          3D

 55 60  0  0  1  0  0  0  0  0999 V2000
    3.2467   -1.8675   -2.4660 C   0  0  0  0  0  0  0  0  0  0  0  0
    3.4907   -2.9147   -1.3362 C   0  0  0  0  0  0  0  0  0  0  0  0
    2.2141   -3.7988   -1.3661 C   0  0  0  0  0  0  0  0  0  0  0  0
    4.7282   -3.8198   -1.6572 C   0  0  1  0  0  0  0  0  0  0  0  0
    5.6679   -3.1733   -2.4933 O   0  0  0  0  0  0  0  0  0  0  0  0
    5.4527   -4.4131   -0.4324 C   0  0  0  0  0  0  0  0  0  0  0  0
    4.5667   -4.5476    0.8124 C   0  0  1  0  0  0  0  0  0  0  0  0
    5.2886   -5.2115    1.8287 O   0  0  0  0  0  0  0  0  0  0  0  0
    4.0200   -3.1693    1.2900 C   0  0  1  0  0  0  0  0  0  0  0  0
    5.2086   -2.5154    1.6890 O   0  0  0  0  0  0  0  0  0  0  0  0
    5.0801   -1.1163    1.7015 C   0  0  1  0  0  0  0  0  0  0  0  0
    4.5426   -1.0029    0.2633 C   0  0  1  0  0  0  0  0  0  0  0  0
    5.6762   -1.0001   -0.5772 O   0  0  0  0  0  0  0  0  0  0  0  0
    3.6141   -2.2424    0.0875 C   0  0  1  0  0  0  0  0  0  0  0  0
    4.1849   -0.5996    2.8904 C   0  0  1  0  0  0  0  0  0  0  0  0
    2.6946   -0.5728    2.5224 C   0  0  0  0  0  0  0  0  0  0  0  0
    2.0644   -1.9591    2.7697 C   0  0  2  0  0  0  0  0  0  0  0  0
    1.7847   -1.9552    4.2843 C   0  0  0  0  0  0  0  0  0  0  0  0
    3.1713   -2.2210    4.8026 C   0  0  2  0  0  0  0  0  0  0  0  0
    4.3619   -1.3265    4.2864 C   0  0  2  0  0  0  0  0  0  0  0  0
    4.8148   -0.3700    5.2091 O   0  0  0  0  0  0  0  0  0  0  0  0
    5.0920   -2.6734    4.3644 C   0  0  0  0  0  0  0  0  0  0  0  0
    3.7632   -3.3277    3.9367 C   0  0  1  0  0  0  0  0  0  0  0  0
    3.6596   -4.5390    4.4840 F   0  0  0  0  0  0  0  0  0  0  0  0
    3.0273   -3.2146    2.5459 C   0  0  2  0  0  0  0  0  0  0  0  0
    2.0762   -4.4236    2.3957 C   0  0  0  0  0  0  0  0  0  0  0  0
    3.1219   -2.3651   -3.4295 H   0  0  0  0  0  0  0  0  0  0  0  0
    4.0496   -1.1423   -2.5757 H   0  0  0  0  0  0  0  0  0  0  0  0
    2.3302   -1.2984   -2.3160 H   0  0  0  0  0  0  0  0  0  0  0  0
    2.2512   -4.6624   -0.7185 H   0  0  0  0  0  0  0  0  0  0  0  0
    2.0078   -4.2020   -2.3611 H   0  0  0  0  0  0  0  0  0  0  0  0
    1.3337   -3.2199   -1.0878 H   0  0  0  0  0  0  0  0  0  0  0  0
    4.4013   -4.6555   -2.2590 H   0  0  0  0  0  0  0  0  0  0  0  0
    5.2598   -3.0609   -3.3425 H   0  0  0  0  0  0  0  0  0  0  0  0
    5.8159   -5.4005   -0.7058 H   0  0  0  0  0  0  0  0  0  0  0  0
    6.3316   -3.8129   -0.1889 H   0  0  0  0  0  0  0  0  0  0  0  0
    3.7647   -5.2288    0.5572 H   0  0  0  0  0  0  0  0  0  0  0  0
    4.7239   -5.3265    2.5842 H   0  0  0  0  0  0  0  0  0  0  0  0
    6.0789   -0.6790    1.7993 H   0  0  0  0  0  0  0  0  0  0  0  0
    4.0284   -0.0582    0.0785 H   0  0  0  0  0  0  0  0  0  0  0  0
    5.3498   -1.0340   -1.4645 H   0  0  0  0  0  0  0  0  0  0  0  0
    2.6067   -1.8917    0.2668 H   0  0  0  0  0  0  0  0  0  0  0  0
    4.4704    0.4481    3.0122 H   0  0  0  0  0  0  0  0  0  0  0  0
    2.2194    0.1839    3.1496 H   0  0  0  0  0  0  0  0  0  0  0  0
    2.4955   -0.1813    1.5294 H   0  0  0  0  0  0  0  0  0  0  0  0
    1.1333   -2.0255    2.2010 H   0  0  0  0  0  0  0  0  0  0  0  0
    1.3573   -1.0310    4.6732 H   0  0  0  0  0  0  0  0  0  0  0  0
    1.1021   -2.7544    4.5661 H   0  0  0  0  0  0  0  0  0  0  0  0
    3.2247   -2.4493    5.8725 H   0  0  0  0  0  0  0  0  0  0  0  0
    4.8842   -0.8240    6.0393 H   0  0  0  0  0  0  0  0  0  0  0  0
    5.9595   -2.8224    3.7437 H   0  0  0  0  0  0  0  0  0  0  0  0
    5.3715   -2.9502    5.3841 H   0  0  0  0  0  0  0  0  0  0  0  0
    1.3111   -4.4509    3.1695 H   0  0  0  0  0  0  0  0  0  0  0  0
    2.5814   -5.3875    2.4346 H   0  0  0  0  0  0  0  0  0  0  0  0
    1.5704   -4.3755    1.4394 H   0  0  0  0  0  0  0  0  0  0  0  0
  1  2  1  0
  1 27  1  0
  1 28  1  0
  1 29  1  0
  2 14  1  0
  2  3  1  0
  2  4  1  0
  3 30  1  0
  3 31  1  0
  3 32  1  0
  4  5  1  0
  4  6  1  0
  4 33  1  6
  5 34  1  0
  6  7  1  0
  6 35  1  0
  6 36  1  0
  7  8  1  0
  7  9  1  0
  7 37  1  6
  8 38  1  0
  9 14  1  0
  9 25  1  0
  9 10  1  1
 10 11  1  0
 11 12  1  0
 11 15  1  0
 11 39  1  6
 12 13  1  0
 12 14  1  0
 12 40  1  1
 13 41  1  0
 14 42  1  1
 15 20  1  0
 15 16  1  0
 15 43  1  1
 16 17  1  0
 16 44  1  0
 16 45  1  0
 17 25  1  0
 17 18  1  0
 17 46  1  6
 18 19  1  0
 18 47  1  0
 18 48  1  0
 19 23  1  0
 19 20  1  0
 19 49  1  1
 20 21  1  1
 20 22  1  0
 21 50  1  0
 22 23  1  0
 22 51  1  0
 22 52  1  0
 23 24  1  1
 23 25  1  0
 25 26  1  6
 26 53  1  0
 26 54  1  0
 26 55  1  0
M  END
>  <i_m_ct_stereo_status>  (264) 
1

>  <s_m_source_file>  (264) 
/var/tmp/pbs.5076255.sched01/tmpavn81tjv/78c0r2i372.sdf

>  <i_m_source_file_index>  (264) 
25

>  <i_lp_mmshare_version>  (264) 
48012

>  <i_f3d_flags>  (264) 
0

>  <s_epik_input>  (264) 
W09IXVtDQEBIXTFbQ0gyXVtDQEhdKFtPSF0pQyhbQ0gzXSkoW0NIM10pW0NAQEhdKFtDQEBdMTIzKVtDQEhdKFtPSF0pW0NASF0oTzIpW0NAQEhdNFtDQEBdNShbT0hdKVtDQEBIXTZbQ0BdKEYpKFtDSDJdNSlbQ0BAXTMoW0NIM10pW0NASF0oW0NIMl00KVtDSDJdNg==

>  <s_epik_cmdline>  (264) 
J2VwaWtfcHl0aG9uJywgJy1waHQnLCAnMi4wJywgJy1waCcsICc3LjAnLCAnLXRuJywgJzgnLCAnLW1hJywgJzIwMCcsICctaW1hZScsICc8aW5maWxlLm1hZT4nLCAnLW9tYWUnLCAnPG91dGZpbGUubWFlPic=

>  <r_lp_tautomer_probability>  (264) 
1

>  <r_epik_Ionization_Penalty>  (264) 
5.28651e-07

>  <r_epik_Ionization_Penalty_Charging>  (264) 
0

>  <r_epik_Ionization_Penalty_Neutral>  (264) 
5.28651e-07

>  <r_epik_State_Penalty>  (264) 
-0

>  <r_epik_Charging_Adjusted_Penalty>  (264) 
0

>  <i_epik_Tot_Q>  (264) 
0

>  <i_epik_Tot_abs_Q>  (264) 
0

>  <s_lp_Force_Field>  (264) 
OPLS3e

>  <r_lp_Energy>  (264) 
103.526

>  <b_lp_Chiralities_Consistent>  (264) 
1

>  <s_lp_Variant>  (264) 
75:0-1

>  <s_i_glide_gridfile>  (264) 
pfpi4k_grid

>  <i_i_glide_lignum>  (264) 
25

>  <i_i_glide_rotatable_bonds>  (264) 
4

>  <r_i_docking_score>  (264) 
-2.60656

>  <r_i_glide_ligand_efficiency>  (264) 
-0.100252

>  <r_i_glide_ligand_efficiency_sa>  (264) 
-0.296997

>  <r_i_glide_ligand_efficiency_ln>  (264) 
-0.612141

>  <r_i_glide_gscore>  (264) 
-2.60656

>  <r_i_glide_lipo>  (264) 
-0.32316

>  <r_i_glide_hbond>  (264) 
0

>  <r_i_glide_metal>  (264) 
-0

>  <r_i_glide_rewards>  (264) 
-0.897002

>  <r_i_glide_evdw>  (264) 
-19.3939

>  <r_i_glide_ecoul>  (264) 
-2.77798

>  <r_i_glide_erotb>  (264) 
0

>  <r_i_glide_esite>  (264) 
0

>  <r_i_glide_emodel>  (264) 
-27.0004

>  <r_i_glide_energy>  (264) 
-22.1719

>  <r_i_glide_einternal>  (264) 
0.989403

>  <r_i_glide_intrahb_reward>  (264) 
-0

>  <i_i_glide_confnum>  (264) 
2

>  <i_i_glide_posenum>  (264) 
13

>  <r_i_glide_eff_state_penalty>  (264) 
0

>  <ligand_id>  (264) 
75

>  <original_smiles>  (264) 
CC1(C)C(O)CC(O)C23OC(C(O)C12)C1CC2CC4C1(O)CC4(F)C23C

>  <smiles>  (264) 
[H]OC1([H])C2([H])OC3(C([H])(O[H])C([H])([H])C([H])(O[H])C(C([H])([H])[H])(C([H])([H])[H])C13[H])C1(C([H])([H])[H])C3([H])C([H])([H])C2([H])C2(O[H])C([H])([H])C1(F)C2([H])C3([H])[H]

$$$$
76:0:0
     RDKit          3D

 46 49  0  0  1  0  0  0  0  0999 V2000
   -2.0433    3.9205   10.6653 C   0  0  0  0  0  0  0  0  0  0  0  0
   -1.7663    3.6020    9.1855 C   0  0  2  0  0  0  0  0  0  0  0  0
   -3.1114    3.2717    8.4934 C   0  0  0  0  0  0  0  0  0  0  0  0
   -2.9841    2.7323    7.0515 C   0  0  0  0  0  0  0  0  0  0  0  0
   -1.5297    2.7662    6.5697 C   0  0  2  0  0  0  0  0  0  0  0  0
   -1.2346    2.5081    5.0797 C   0  0  1  0  0  0  0  0  0  0  0  0
   -2.2558    3.1797    4.1336 C   0  0  0  0  0  0  0  0  0  0  0  0
    0.2314    2.9633    4.8103 C   0  0  1  0  0  0  0  0  0  0  0  0
    0.3479    4.3978    4.2640 C   0  0  0  0  0  0  0  0  0  0  0  0
    1.0354    2.9280    6.0058 O   0  0  0  0  0  0  0  0  0  0  0  0
    0.7761    1.8097    6.7941 C   0  0  1  0  0  0  0  0  0  0  0  0
    1.7960    1.4147    7.6430 O   0  0  0  0  0  0  0  0  0  0  0  0
    1.3480    0.4792    8.6218 C   0  0  1  0  0  0  0  0  0  0  0  0
    2.4564   -0.5709    8.7788 C   0  0  0  0  0  0  0  0  0  0  0  0
    1.2287    1.2549    9.9438 C   0  0  0  0  0  0  0  0  0  0  0  0
    0.5675    2.6200    9.7582 C   0  0  0  0  0  0  0  0  0  0  0  0
   -0.7474    2.4461    8.9947 C   0  0  2  0  0  0  0  0  0  0  0  0
   -0.6135    1.9213    7.5064 C   0  0  1  0  0  0  0  0  0  0  0  0
   -0.9766    0.5583    7.5921 O   0  0  0  0  0  0  0  0  0  0  0  0
    0.1449   -0.2691    8.2800 O   0  0  0  0  0  0  0  0  0  0  0  0
   -2.3586    3.0349   11.2168 H   0  0  0  0  0  0  0  0  0  0  0  0
   -2.8519    4.6460   10.7709 H   0  0  0  0  0  0  0  0  0  0  0  0
   -1.1665    4.3250   11.1746 H   0  0  0  0  0  0  0  0  0  0  0  0
   -1.3515    4.5109    8.7511 H   0  0  0  0  0  0  0  0  0  0  0  0
   -3.6612    2.5443    9.0942 H   0  0  0  0  0  0  0  0  0  0  0  0
   -3.7316    4.1671    8.4854 H   0  0  0  0  0  0  0  0  0  0  0  0
   -3.3700    1.7147    6.9969 H   0  0  0  0  0  0  0  0  0  0  0  0
   -3.6130    3.3332    6.3992 H   0  0  0  0  0  0  0  0  0  0  0  0
   -1.2267    3.8079    6.6782 H   0  0  0  0  0  0  0  0  0  0  0  0
   -1.3109    1.4341    4.9026 H   0  0  0  0  0  0  0  0  0  0  0  0
   -2.3618    4.2414    4.3572 H   0  0  0  0  0  0  0  0  0  0  0  0
   -3.2487    2.7331    4.2183 H   0  0  0  0  0  0  0  0  0  0  0  0
   -1.9591    3.0984    3.0849 H   0  0  0  0  0  0  0  0  0  0  0  0
    0.6721    2.2963    4.0707 H   0  0  0  0  0  0  0  0  0  0  0  0
   -0.1584    4.5101    3.2996 H   0  0  0  0  0  0  0  0  0  0  0  0
    1.3940    4.6872    4.1371 H   0  0  0  0  0  0  0  0  0  0  0  0
   -0.0811    5.1266    4.9534 H   0  0  0  0  0  0  0  0  0  0  0  0
    0.7575    0.9734    6.0874 H   0  0  0  0  0  0  0  0  0  0  0  0
    2.6190   -1.1320    7.8572 H   0  0  0  0  0  0  0  0  0  0  0  0
    2.2136   -1.2884    9.5627 H   0  0  0  0  0  0  0  0  0  0  0  0
    3.4075   -0.1088    9.0480 H   0  0  0  0  0  0  0  0  0  0  0  0
    0.6722    0.6575   10.6653 H   0  0  0  0  0  0  0  0  0  0  0  0
    2.2163    1.4157   10.3777 H   0  0  0  0  0  0  0  0  0  0  0  0
    0.4018    3.0539   10.7458 H   0  0  0  0  0  0  0  0  0  0  0  0
    1.2326    3.2998    9.2274 H   0  0  0  0  0  0  0  0  0  0  0  0
   -1.2465    1.6438    9.5459 H   0  0  0  0  0  0  0  0  0  0  0  0
  1  2  1  0
  1 21  1  0
  1 22  1  0
  1 23  1  0
  2 17  1  0
  2  3  1  0
  2 24  1  6
  3  4  1  0
  3 25  1  0
  3 26  1  0
  4  5  1  0
  4 27  1  0
  4 28  1  0
  5 18  1  0
  5  6  1  0
  5 29  1  1
  6  7  1  0
  6  8  1  0
  6 30  1  1
  7 31  1  0
  7 32  1  0
  7 33  1  0
  8  9  1  0
  8 10  1  0
  8 34  1  6
  9 35  1  0
  9 36  1  0
  9 37  1  0
 10 11  1  0
 11 18  1  0
 11 12  1  0
 11 38  1  6
 12 13  1  0
 13 20  1  0
 13 14  1  1
 13 15  1  0
 14 39  1  0
 14 40  1  0
 14 41  1  0
 15 16  1  0
 15 42  1  0
 15 43  1  0
 16 17  1  0
 16 44  1  0
 16 45  1  0
 17 18  1  0
 17 46  1  1
 18 19  1  1
 19 20  1  0
M  END
>  <i_m_ct_stereo_status>  (265) 
1

>  <s_m_source_file>  (265) 
/var/tmp/pbs.5076255.sched01/tmpavn81tjv/78c0r2i372.sdf

>  <i_m_source_file_index>  (265) 
26

>  <i_lp_mmshare_version>  (265) 
48012

>  <i_f3d_flags>  (265) 
0

>  <s_epik_input>  (265) 
W0NAXTEyM1tDQEBIXTRbQ0gyXVtDSDJdW0NAQEhdKFtDSDNdKVtDQEBIXTJbQ0gyXVtDSDJdW0NAQF0oW0NIM10pKE9PMylPW0NAQEhdMU9bQ0BIXShbQ0gzXSlbQ0BASF00W0NIM10=

>  <s_epik_cmdline>  (265) 
J2VwaWtfcHl0aG9uJywgJy1waHQnLCAnMi4wJywgJy1waCcsICc3LjAnLCAnLXRuJywgJzgnLCAnLW1hJywgJzIwMCcsICctaW1hZScsICc8aW5maWxlLm1hZT4nLCAnLW9tYWUnLCAnPG91dGZpbGUubWFlPic=

>  <r_lp_tautomer_probability>  (265) 
1

>  <r_epik_Ionization_Penalty>  (265) 
3.19687e-14

>  <r_epik_Ionization_Penalty_Charging>  (265) 
0

>  <r_epik_Ionization_Penalty_Neutral>  (265) 
3.19687e-14

>  <r_epik_State_Penalty>  (265) 
-0

>  <r_epik_Charging_Adjusted_Penalty>  (265) 
0

>  <i_epik_Tot_Q>  (265) 
0

>  <i_epik_Tot_abs_Q>  (265) 
0

>  <s_epik_Chemistry_Notes>  (265) 
This compound contains an acetal/aminal-like group ( X-CH(R)-Y where X, Y are N, S, or O) that may be acid/base labile, releasing an aldehyde.

>  <s_lp_Force_Field>  (265) 
OPLS3e

>  <r_lp_Energy>  (265) 
69.1533

>  <b_lp_Chiralities_Consistent>  (265) 
1

>  <s_lp_Variant>  (265) 
76:0-1

>  <s_i_glide_gridfile>  (265) 
pfpi4k_grid

>  <i_i_glide_lignum>  (265) 
26

>  <i_i_glide_rotatable_bonds>  (265) 
0

>  <r_i_docking_score>  (265) 
-2.97194

>  <r_i_glide_ligand_efficiency>  (265) 
-0.148597

>  <r_i_glide_ligand_efficiency_sa>  (265) 
-0.403354

>  <r_i_glide_ligand_efficiency_ln>  (265) 
-0.743777

>  <r_i_glide_gscore>  (265) 
-2.97194

>  <r_i_glide_lipo>  (265) 
-0.293569

>  <r_i_glide_hbond>  (265) 
-0.103198

>  <r_i_glide_metal>  (265) 
-0

>  <r_i_glide_rewards>  (265) 
-1.48381

>  <r_i_glide_evdw>  (265) 
-16.3335

>  <r_i_glide_ecoul>  (265) 
-1.82703

>  <r_i_glide_erotb>  (265) 
0

>  <r_i_glide_esite>  (265) 
-0.000632653

>  <r_i_glide_emodel>  (265) 
-21.6362

>  <r_i_glide_energy>  (265) 
-18.1605

>  <r_i_glide_einternal>  (265) 
0

>  <r_i_glide_intrahb_reward>  (265) 
-0

>  <i_i_glide_confnum>  (265) 
1

>  <i_i_glide_posenum>  (265) 
1

>  <r_i_glide_eff_state_penalty>  (265) 
0

>  <ligand_id>  (265) 
76

>  <original_smiles>  (265) 
CC1CCC2C(C)C(C)OC3OC4(C)CCC1C32OO4

>  <smiles>  (265) 
[H]C([H])([H])C1([H])OC2([H])OC3(C([H])([H])[H])OOC24C([H])(C([H])([H])C3([H])[H])C([H])(C([H])([H])[H])C([H])([H])C([H])([H])C4([H])C1([H])C([H])([H])[H]

$$$$
76:0:1
     RDKit          3D

 46 49  0  0  1  0  0  0  0  0999 V2000
   -3.0071    4.1302    9.3638 C   0  0  0  0  0  0  0  0  0  0  0  0
   -1.8737    3.1014    9.2073 C   0  0  2  0  0  0  0  0  0  0  0  0
   -0.6583    3.5693   10.0529 C   0  0  0  0  0  0  0  0  0  0  0  0
    0.6280    2.7491    9.8507 C   0  0  0  0  0  0  0  0  0  0  0  0
    0.3828    1.5494    8.9307 C   0  0  2  0  0  0  0  0  0  0  0  0
    1.4751    0.4733    8.8068 C   0  0  1  0  0  0  0  0  0  0  0  0
    2.1623    0.1482   10.1563 C   0  0  0  0  0  0  0  0  0  0  0  0
    0.8334   -0.7751    8.1262 C   0  0  1  0  0  0  0  0  0  0  0  0
    0.3412   -1.8444    9.1187 C   0  0  0  0  0  0  0  0  0  0  0  0
   -0.3100   -0.4202    7.3187 O   0  0  0  0  0  0  0  0  0  0  0  0
   -0.1125    0.7551    6.6012 C   0  0  1  0  0  0  0  0  0  0  0  0
   -0.8924    0.9001    5.4666 O   0  0  0  0  0  0  0  0  0  0  0  0
   -0.8560    2.2356    4.9564 C   0  0  1  0  0  0  0  0  0  0  0  0
   -0.7873    2.1447    3.4261 C   0  0  0  0  0  0  0  0  0  0  0  0
   -2.1942    2.8852    5.3438 C   0  0  0  0  0  0  0  0  0  0  0  0
   -2.6157    2.5459    6.7768 C   0  0  0  0  0  0  0  0  0  0  0  0
   -1.4571    2.8696    7.7249 C   0  0  2  0  0  0  0  0  0  0  0  0
   -0.1453    2.0124    7.5338 C   0  0  1  0  0  0  0  0  0  0  0  0
    0.7303    2.8805    6.8428 O   0  0  0  0  0  0  0  0  0  0  0  0
    0.2991    3.0359    5.3593 O   0  0  0  0  0  0  0  0  0  0  0  0
   -2.7653    5.0775    8.8906 H   0  0  0  0  0  0  0  0  0  0  0  0
   -3.1778    4.3604   10.4179 H   0  0  0  0  0  0  0  0  0  0  0  0
   -3.9475    3.7835    8.9332 H   0  0  0  0  0  0  0  0  0  0  0  0
   -2.2587    2.1648    9.6177 H   0  0  0  0  0  0  0  0  0  0  0  0
   -0.4435    4.6163    9.8367 H   0  0  0  0  0  0  0  0  0  0  0  0
   -0.9386    3.5317   11.1047 H   0  0  0  0  0  0  0  0  0  0  0  0
    1.4153    3.3782    9.4417 H   0  0  0  0  0  0  0  0  0  0  0  0
    0.9705    2.4193   10.8314 H   0  0  0  0  0  0  0  0  0  0  0  0
   -0.4213    0.9879    9.4124 H   0  0  0  0  0  0  0  0  0  0  0  0
    2.2566    0.8660    8.1516 H   0  0  0  0  0  0  0  0  0  0  0  0
    1.4357   -0.0966   10.9274 H   0  0  0  0  0  0  0  0  0  0  0  0
    2.7442    0.9945   10.5282 H   0  0  0  0  0  0  0  0  0  0  0  0
    2.8452   -0.6979   10.0819 H   0  0  0  0  0  0  0  0  0  0  0  0
    1.5807   -1.2393    7.4836 H   0  0  0  0  0  0  0  0  0  0  0  0
    1.1596   -2.2518    9.7189 H   0  0  0  0  0  0  0  0  0  0  0  0
   -0.1565   -2.6666    8.5967 H   0  0  0  0  0  0  0  0  0  0  0  0
   -0.4016   -1.4441    9.8069 H   0  0  0  0  0  0  0  0  0  0  0  0
    0.8820    0.6540    6.1583 H   0  0  0  0  0  0  0  0  0  0  0  0
    0.1306    1.6673    3.0866 H   0  0  0  0  0  0  0  0  0  0  0  0
   -0.8275    3.1309    2.9663 H   0  0  0  0  0  0  0  0  0  0  0  0
   -1.6190    1.5691    3.0180 H   0  0  0  0  0  0  0  0  0  0  0  0
   -2.1241    3.9660    5.2148 H   0  0  0  0  0  0  0  0  0  0  0  0
   -2.9812    2.5491    4.6670 H   0  0  0  0  0  0  0  0  0  0  0  0
   -3.5070    3.1247    7.0287 H   0  0  0  0  0  0  0  0  0  0  0  0
   -2.8841    1.4937    6.8621 H   0  0  0  0  0  0  0  0  0  0  0  0
   -1.1848    3.8912    7.4402 H   0  0  0  0  0  0  0  0  0  0  0  0
  1  2  1  0
  1 21  1  0
  1 22  1  0
  1 23  1  0
  2 17  1  0
  2  3  1  0
  2 24  1  1
  3  4  1  0
  3 25  1  0
  3 26  1  0
  4  5  1  0
  4 27  1  0
  4 28  1  0
  5 18  1  0
  5  6  1  0
  5 29  1  1
  6  7  1  0
  6  8  1  0
  6 30  1  6
  7 31  1  0
  7 32  1  0
  7 33  1  0
  8  9  1  0
  8 10  1  0
  8 34  1  6
  9 35  1  0
  9 36  1  0
  9 37  1  0
 10 11  1  0
 11 18  1  0
 11 12  1  0
 11 38  1  6
 12 13  1  0
 13 20  1  0
 13 14  1  6
 13 15  1  0
 14 39  1  0
 14 40  1  0
 14 41  1  0
 15 16  1  0
 15 42  1  0
 15 43  1  0
 16 17  1  0
 16 44  1  0
 16 45  1  0
 17 18  1  0
 17 46  1  6
 18 19  1  6
 19 20  1  0
M  END
>  <i_m_ct_stereo_status>  (266) 
1

>  <s_m_source_file>  (266) 
/var/tmp/pbs.5076255.sched01/tmpavn81tjv/78c0r2i372.sdf

>  <i_m_source_file_index>  (266) 
26

>  <i_lp_mmshare_version>  (266) 
48012

>  <i_f3d_flags>  (266) 
0

>  <s_epik_input>  (266) 
W0NAXTEyM1tDQEBIXTRbQ0gyXVtDSDJdW0NAQEhdKFtDSDNdKVtDQEBIXTJbQ0gyXVtDSDJdW0NAQF0oW0NIM10pKE9PMylPW0NAQEhdMU9bQ0BIXShbQ0gzXSlbQ0BASF00W0NIM10=

>  <s_epik_cmdline>  (266) 
J2VwaWtfcHl0aG9uJywgJy1waHQnLCAnMi4wJywgJy1waCcsICc3LjAnLCAnLXRuJywgJzgnLCAnLW1hJywgJzIwMCcsICctaW1hZScsICc8aW5maWxlLm1hZT4nLCAnLW9tYWUnLCAnPG91dGZpbGUubWFlPic=

>  <r_lp_tautomer_probability>  (266) 
1

>  <r_epik_Ionization_Penalty>  (266) 
3.19687e-14

>  <r_epik_Ionization_Penalty_Charging>  (266) 
0

>  <r_epik_Ionization_Penalty_Neutral>  (266) 
3.19687e-14

>  <r_epik_State_Penalty>  (266) 
-0

>  <r_epik_Charging_Adjusted_Penalty>  (266) 
0

>  <i_epik_Tot_Q>  (266) 
0

>  <i_epik_Tot_abs_Q>  (266) 
0

>  <s_epik_Chemistry_Notes>  (266) 
This compound contains an acetal/aminal-like group ( X-CH(R)-Y where X, Y are N, S, or O) that may be acid/base labile, releasing an aldehyde.

>  <s_lp_Force_Field>  (266) 
OPLS3e

>  <r_lp_Energy>  (266) 
69.1533

>  <b_lp_Chiralities_Consistent>  (266) 
1

>  <s_lp_Variant>  (266) 
76:0-1

>  <s_i_glide_gridfile>  (266) 
pfpi4k_grid

>  <i_i_glide_lignum>  (266) 
26

>  <i_i_glide_rotatable_bonds>  (266) 
0

>  <r_i_docking_score>  (266) 
-2.69821

>  <r_i_glide_ligand_efficiency>  (266) 
-0.13491

>  <r_i_glide_ligand_efficiency_sa>  (266) 
-0.366203

>  <r_i_glide_ligand_efficiency_ln>  (266) 
-0.675273

>  <r_i_glide_gscore>  (266) 
-2.69821

>  <r_i_glide_lipo>  (266) 
-0.182805

>  <r_i_glide_hbond>  (266) 
-0.0135342

>  <r_i_glide_metal>  (266) 
-0

>  <r_i_glide_rewards>  (266) 
-1.48381

>  <r_i_glide_evdw>  (266) 
-15.908

>  <r_i_glide_ecoul>  (266) 
-1.2711

>  <r_i_glide_erotb>  (266) 
0

>  <r_i_glide_esite>  (266) 
-0.0320015

>  <r_i_glide_emodel>  (266) 
-20.2816

>  <r_i_glide_energy>  (266) 
-17.1791

>  <r_i_glide_einternal>  (266) 
0

>  <r_i_glide_intrahb_reward>  (266) 
-0

>  <i_i_glide_confnum>  (266) 
1

>  <i_i_glide_posenum>  (266) 
16

>  <r_i_glide_eff_state_penalty>  (266) 
0

>  <ligand_id>  (266) 
76

>  <original_smiles>  (266) 
CC1CCC2C(C)C(C)OC3OC4(C)CCC1C32OO4

>  <smiles>  (266) 
[H]C([H])([H])C1([H])OC2([H])OC3(C([H])([H])[H])OOC24C([H])(C([H])([H])C3([H])[H])C([H])(C([H])([H])[H])C([H])([H])C([H])([H])C4([H])C1([H])C([H])([H])[H]

$$$$
76:0:2
     RDKit          3D

 46 49  0  0  1  0  0  0  0  0999 V2000
   -1.4791    3.6750    8.0501 C   0  0  0  0  0  0  0  0  0  0  0  0
   -0.9600    2.9123    6.8211 C   0  0  2  0  0  0  0  0  0  0  0  0
   -2.1262    2.7485    5.8121 C   0  0  0  0  0  0  0  0  0  0  0  0
   -1.8191    1.8405    4.6012 C   0  0  0  0  0  0  0  0  0  0  0  0
   -0.3622    1.3815    4.6012 C   0  0  2  0  0  0  0  0  0  0  0  0
    0.1822    0.6750    3.3510 C   0  0  1  0  0  0  0  0  0  0  0  0
   -0.3421    1.3041    2.0382 C   0  0  0  0  0  0  0  0  0  0  0  0
    1.7232    0.6671    3.4570 C   0  0  1  0  0  0  0  0  0  0  0  0
    2.4315    1.8262    2.7382 C   0  0  0  0  0  0  0  0  0  0  0  0
    2.1740    0.7394    4.8326 O   0  0  0  0  0  0  0  0  0  0  0  0
    1.4006   -0.0330    5.6926 C   0  0  1  0  0  0  0  0  0  0  0  0
    2.0090   -0.4218    6.8686 O   0  0  0  0  0  0  0  0  0  0  0  0
    1.0755   -0.9231    7.8206 C   0  0  1  0  0  0  0  0  0  0  0  0
    1.7198   -2.1407    8.4976 C   0  0  0  0  0  0  0  0  0  0  0  0
    0.8785    0.1733    8.8704 C   0  0  0  0  0  0  0  0  0  0  0  0
    0.7464    1.5600    8.2485 C   0  0  0  0  0  0  0  0  0  0  0  0
   -0.3339    1.5308    7.1684 C   0  0  2  0  0  0  0  0  0  0  0  0
   -0.0216    0.6063    5.9128 C   0  0  1  0  0  0  0  0  0  0  0  0
   -0.7971   -0.5423    6.1449 O   0  0  0  0  0  0  0  0  0  0  0  0
   -0.1907   -1.4322    7.2562 O   0  0  0  0  0  0  0  0  0  0  0  0
   -2.1763    3.0783    8.6334 H   0  0  0  0  0  0  0  0  0  0  0  0
   -2.0347    4.5752    7.7610 H   0  0  0  0  0  0  0  0  0  0  0  0
   -0.6771    3.9823    8.7243 H   0  0  0  0  0  0  0  0  0  0  0  0
   -0.1850    3.5367    6.3674 H   0  0  0  0  0  0  0  0  0  0  0  0
   -3.0006    2.3518    6.3234 H   0  0  0  0  0  0  0  0  0  0  0  0
   -2.4130    3.7300    5.4427 H   0  0  0  0  0  0  0  0  0  0  0  0
   -2.4720    0.9733    4.5895 H   0  0  0  0  0  0  0  0  0  0  0  0
   -2.0517    2.4080    3.6981 H   0  0  0  0  0  0  0  0  0  0  0  0
    0.2199    2.3037    4.6055 H   0  0  0  0  0  0  0  0  0  0  0  0
   -0.1789   -0.3615    3.3637 H   0  0  0  0  0  0  0  0  0  0  0  0
   -0.1759    2.3750    2.0216 H   0  0  0  0  0  0  0  0  0  0  0  0
   -1.4177    1.1508    1.8878 H   0  0  0  0  0  0  0  0  0  0  0  0
    0.1599    0.8877    1.1597 H   0  0  0  0  0  0  0  0  0  0  0  0
    2.1020   -0.2674    3.0314 H   0  0  0  0  0  0  0  0  0  0  0  0
    2.2574    1.8157    1.6586 H   0  0  0  0  0  0  0  0  0  0  0  0
    3.4944    1.7887    2.9273 H   0  0  0  0  0  0  0  0  0  0  0  0
    2.0960    2.8026    3.1158 H   0  0  0  0  0  0  0  0  0  0  0  0
    1.2893   -0.9877    5.1817 H   0  0  0  0  0  0  0  0  0  0  0  0
    1.9167   -2.9515    7.7825 H   0  0  0  0  0  0  0  0  0  0  0  0
    1.0813   -2.5464    9.2790 H   0  0  0  0  0  0  0  0  0  0  0  0
    2.6761   -1.8819    8.9598 H   0  0  0  0  0  0  0  0  0  0  0  0
   -0.0000   -0.0532    9.4834 H   0  0  0  0  0  0  0  0  0  0  0  0
    1.7239    0.2027    9.5596 H   0  0  0  0  0  0  0  0  0  0  0  0
    0.4964    2.2620    9.0527 H   0  0  0  0  0  0  0  0  0  0  0  0
    1.6999    1.8836    7.8321 H   0  0  0  0  0  0  0  0  0  0  0  0
   -1.1775    1.0502    7.6684 H   0  0  0  0  0  0  0  0  0  0  0  0
  1  2  1  0
  1 21  1  0
  1 22  1  0
  1 23  1  0
  2 17  1  0
  2  3  1  0
  2 24  1  6
  3  4  1  0
  3 25  1  0
  3 26  1  0
  4  5  1  0
  4 27  1  0
  4 28  1  0
  5 18  1  0
  5  6  1  0
  5 29  1  1
  6  7  1  0
  6  8  1  0
  6 30  1  1
  7 31  1  0
  7 32  1  0
  7 33  1  0
  8  9  1  0
  8 10  1  0
  8 34  1  6
  9 35  1  0
  9 36  1  0
  9 37  1  0
 10 11  1  0
 11 18  1  0
 11 12  1  0
 11 38  1  6
 12 13  1  0
 13 20  1  0
 13 14  1  1
 13 15  1  0
 14 39  1  0
 14 40  1  0
 14 41  1  0
 15 16  1  0
 15 42  1  0
 15 43  1  0
 16 17  1  0
 16 44  1  0
 16 45  1  0
 17 18  1  0
 17 46  1  1
 18 19  1  1
 19 20  1  0
M  END
>  <i_m_ct_stereo_status>  (267) 
1

>  <s_m_source_file>  (267) 
/var/tmp/pbs.5076255.sched01/tmpavn81tjv/78c0r2i372.sdf

>  <i_m_source_file_index>  (267) 
26

>  <i_lp_mmshare_version>  (267) 
48012

>  <i_f3d_flags>  (267) 
0

>  <s_epik_input>  (267) 
W0NAXTEyM1tDQEBIXTRbQ0gyXVtDSDJdW0NAQEhdKFtDSDNdKVtDQEBIXTJbQ0gyXVtDSDJdW0NAQF0oW0NIM10pKE9PMylPW0NAQEhdMU9bQ0BIXShbQ0gzXSlbQ0BASF00W0NIM10=

>  <s_epik_cmdline>  (267) 
J2VwaWtfcHl0aG9uJywgJy1waHQnLCAnMi4wJywgJy1waCcsICc3LjAnLCAnLXRuJywgJzgnLCAnLW1hJywgJzIwMCcsICctaW1hZScsICc8aW5maWxlLm1hZT4nLCAnLW9tYWUnLCAnPG91dGZpbGUubWFlPic=

>  <r_lp_tautomer_probability>  (267) 
1

>  <r_epik_Ionization_Penalty>  (267) 
3.19687e-14

>  <r_epik_Ionization_Penalty_Charging>  (267) 
0

>  <r_epik_Ionization_Penalty_Neutral>  (267) 
3.19687e-14

>  <r_epik_State_Penalty>  (267) 
-0

>  <r_epik_Charging_Adjusted_Penalty>  (267) 
0

>  <i_epik_Tot_Q>  (267) 
0

>  <i_epik_Tot_abs_Q>  (267) 
0

>  <s_epik_Chemistry_Notes>  (267) 
This compound contains an acetal/aminal-like group ( X-CH(R)-Y where X, Y are N, S, or O) that may be acid/base labile, releasing an aldehyde.

>  <s_lp_Force_Field>  (267) 
OPLS3e

>  <r_lp_Energy>  (267) 
69.1533

>  <b_lp_Chiralities_Consistent>  (267) 
1

>  <s_lp_Variant>  (267) 
76:0-1

>  <s_i_glide_gridfile>  (267) 
pfpi4k_grid

>  <i_i_glide_lignum>  (267) 
26

>  <i_i_glide_rotatable_bonds>  (267) 
0

>  <r_i_docking_score>  (267) 
-2.63248

>  <r_i_glide_ligand_efficiency>  (267) 
-0.131624

>  <r_i_glide_ligand_efficiency_sa>  (267) 
-0.357282

>  <r_i_glide_ligand_efficiency_ln>  (267) 
-0.658822

>  <r_i_glide_gscore>  (267) 
-2.63248

>  <r_i_glide_lipo>  (267) 
-0.0689012

>  <r_i_glide_hbond>  (267) 
-0.00790911

>  <r_i_glide_metal>  (267) 
-0

>  <r_i_glide_rewards>  (267) 
-1.48381

>  <r_i_glide_evdw>  (267) 
-15.7371

>  <r_i_glide_ecoul>  (267) 
-1.83677

>  <r_i_glide_erotb>  (267) 
0

>  <r_i_glide_esite>  (267) 
-0.00949065

>  <r_i_glide_emodel>  (267) 
-20.5907

>  <r_i_glide_energy>  (267) 
-17.5739

>  <r_i_glide_einternal>  (267) 
0

>  <r_i_glide_intrahb_reward>  (267) 
-0

>  <i_i_glide_confnum>  (267) 
2

>  <i_i_glide_posenum>  (267) 
6

>  <r_i_glide_eff_state_penalty>  (267) 
0

>  <ligand_id>  (267) 
76

>  <original_smiles>  (267) 
CC1CCC2C(C)C(C)OC3OC4(C)CCC1C32OO4

>  <smiles>  (267) 
[H]C([H])([H])C1([H])OC2([H])OC3(C([H])([H])[H])OOC24C([H])(C([H])([H])C3([H])[H])C([H])(C([H])([H])[H])C([H])([H])C([H])([H])C4([H])C1([H])C([H])([H])[H]

$$$$
77:0:0
     RDKit          3D

 62 67  0  0  1  0  0  0  0  0999 V2000
    4.5487   -7.7414    4.5994 C   0  0  0  0  0  0  0  0  0  0  0  0
    4.9259   -6.4052    3.9145 C   0  0  0  0  0  0  0  0  0  0  0  0
    6.1914   -5.8962    4.6487 C   0  0  0  0  0  0  0  0  0  0  0  0
    5.2589   -6.6797    2.4645 C   0  0  0  0  0  0  0  0  0  0  0  0
    5.1584   -5.3228    1.7889 C   0  0  1  0  0  0  0  0  0  0  0  0
    5.2468   -5.5043    0.2954 C   0  0  0  0  0  0  0  0  0  0  0  0
    5.3318   -4.5352   -0.6158 C   0  0  0  0  0  0  0  0  0  0  0  0
    5.3224   -3.0421   -0.3759 C   0  0  2  0  0  0  0  0  0  0  0  0
    6.1487   -2.5808    0.8526 C   0  0  1  0  0  0  0  0  0  0  0  0
    6.9612   -1.4753    0.4847 O   0  0  0  0  0  0  0  0  0  0  0  0
    5.3254   -2.2891    2.1564 C   0  0  1  0  0  0  0  0  0  0  0  0
    5.2371   -0.8482    2.2075 O   0  0  0  0  0  0  0  0  0  0  0  0
    3.9504   -0.2800    2.4136 C   0  0  2  0  0  0  0  0  0  0  0  0
    3.4463   -0.8416    3.7219 C   0  0  0  0  0  0  0  0  0  0  0  0
    3.1580   -2.3339    3.5060 C   0  0  1  0  0  0  0  0  0  0  0  0
    1.7476   -2.4911    3.4374 O   0  0  0  0  0  0  0  0  0  0  0  0
    3.8933   -2.9478    2.2265 C   0  0  1  0  0  0  0  0  0  0  0  0
    3.2176   -2.2351    0.9498 C   0  0  1  0  0  0  0  0  0  0  0  0
    3.0041   -0.7173    1.2962 C   0  0  0  0  0  0  0  0  0  0  0  0
    3.8888   -2.4433   -0.4797 C   0  0  0  0  0  0  0  0  0  0  0  0
    4.0534   -1.1626   -1.3413 C   0  0  0  0  0  0  0  0  0  0  0  0
    2.9304   -3.3252   -1.3286 C   0  0  0  0  0  0  0  0  0  0  0  0
    3.8927   -4.5963    2.3515 C   0  0  1  0  0  0  0  0  0  0  0  0
    2.5948   -5.2507    1.7703 C   0  0  0  0  0  0  0  0  0  0  0  0
    2.0549   -6.1369    2.7414 O   0  0  0  0  0  0  0  0  0  0  0  0
    2.3942   -5.6234    3.9724 C   0  0  1  0  0  0  0  0  0  0  0  0
    2.0947   -6.4664    5.0522 O   0  0  0  0  0  0  0  0  0  0  0  0
    3.8807   -5.2258    3.8148 C   0  0  1  0  0  0  0  0  0  0  0  0
    5.3868   -8.4361    4.5470 H   0  0  0  0  0  0  0  0  0  0  0  0
    3.7090   -8.2424    4.1127 H   0  0  0  0  0  0  0  0  0  0  0  0
    4.3268   -7.6036    5.6581 H   0  0  0  0  0  0  0  0  0  0  0  0
    6.5446   -4.9421    4.2611 H   0  0  0  0  0  0  0  0  0  0  0  0
    7.0128   -6.6067    4.5693 H   0  0  0  0  0  0  0  0  0  0  0  0
    5.9859   -5.7501    5.7078 H   0  0  0  0  0  0  0  0  0  0  0  0
    6.2442   -7.1231    2.3361 H   0  0  0  0  0  0  0  0  0  0  0  0
    4.5340   -7.3692    2.0293 H   0  0  0  0  0  0  0  0  0  0  0  0
    6.0564   -4.8270    2.1289 H   0  0  0  0  0  0  0  0  0  0  0  0
    5.2470   -6.5220   -0.0632 H   0  0  0  0  0  0  0  0  0  0  0  0
    5.3761   -4.8214   -1.6571 H   0  0  0  0  0  0  0  0  0  0  0  0
    5.8984   -2.7275   -1.2498 H   0  0  0  0  0  0  0  0  0  0  0  0
    6.9093   -3.3305    1.0569 H   0  0  0  0  0  0  0  0  0  0  0  0
    7.2732   -1.0786    1.2838 H   0  0  0  0  0  0  0  0  0  0  0  0
    5.9008   -2.5957    3.0306 H   0  0  0  0  0  0  0  0  0  0  0  0
    4.0238    0.8088    2.4677 H   0  0  0  0  0  0  0  0  0  0  0  0
    4.2099   -0.6981    4.4892 H   0  0  0  0  0  0  0  0  0  0  0  0
    2.5612   -0.3007    4.0596 H   0  0  0  0  0  0  0  0  0  0  0  0
    3.4726   -2.7486    4.4529 H   0  0  0  0  0  0  0  0  0  0  0  0
    1.4243   -1.9791    2.7121 H   0  0  0  0  0  0  0  0  0  0  0  0
    2.1977   -2.5946    0.8474 H   0  0  0  0  0  0  0  0  0  0  0  0
    1.9794   -0.5700    1.6427 H   0  0  0  0  0  0  0  0  0  0  0  0
    3.0633    0.0008    0.4890 H   0  0  0  0  0  0  0  0  0  0  0  0
    3.0937   -0.6829   -1.5568 H   0  0  0  0  0  0  0  0  0  0  0  0
    4.5005   -1.3861   -2.3119 H   0  0  0  0  0  0  0  0  0  0  0  0
    4.7055   -0.4319   -0.8573 H   0  0  0  0  0  0  0  0  0  0  0  0
    1.9769   -2.8262   -1.4952 H   0  0  0  0  0  0  0  0  0  0  0  0
    2.7053   -4.2755   -0.8518 H   0  0  0  0  0  0  0  0  0  0  0  0
    3.3457   -3.5394   -2.3152 H   0  0  0  0  0  0  0  0  0  0  0  0
    1.8243   -4.5191    1.5455 H   0  0  0  0  0  0  0  0  0  0  0  0
    2.7561   -5.8320    0.8613 H   0  0  0  0  0  0  0  0  0  0  0  0
    1.7756   -4.7526    4.1449 H   0  0  0  0  0  0  0  0  0  0  0  0
    2.6381   -7.2393    4.9707 H   0  0  0  0  0  0  0  0  0  0  0  0
    4.1519   -4.5576    4.6233 H   0  0  0  0  0  0  0  0  0  0  0  0
  1  2  1  0
  1 29  1  0
  1 30  1  0
  1 31  1  0
  2 28  1  0
  2  3  1  0
  2  4  1  0
  3 32  1  0
  3 33  1  0
  3 34  1  0
  4  5  1  0
  4 35  1  0
  4 36  1  0
  5 23  1  0
  5  6  1  0
  5 37  1  1
  6  7  2  3
  6 38  1  0
  7  8  1  0
  7 39  1  0
  8 20  1  0
  8  9  1  0
  8 40  1  6
  9 10  1  0
  9 11  1  0
  9 41  1  1
 10 42  1  0
 11 17  1  0
 11 12  1  0
 11 43  1  1
 12 13  1  0
 13 19  1  0
 13 14  1  0
 13 44  1  1
 14 15  1  0
 14 45  1  0
 14 46  1  0
 15 16  1  0
 15 17  1  0
 15 47  1  1
 16 48  1  0
 17 18  1  0
 17 23  1  6
 18 19  1  0
 18 20  1  0
 18 49  1  6
 19 50  1  0
 19 51  1  0
 20 21  1  0
 20 22  1  0
 21 52  1  0
 21 53  1  0
 21 54  1  0
 22 55  1  0
 22 56  1  0
 22 57  1  0
 23 28  1  0
 23 24  1  6
 24 25  1  0
 24 58  1  0
 24 59  1  0
 25 26  1  0
 26 27  1  0
 26 28  1  0
 26 60  1  1
 27 61  1  0
 28 62  1  1
M  END
>  <i_m_ct_stereo_status>  (268) 
1

>  <s_m_source_file>  (268) 
/var/tmp/pbs.5076255.sched01/tmpavn81tjv/78c0r2i372.sdf

>  <i_m_source_file_index>  (268) 
27

>  <i_lp_mmshare_version>  (268) 
48012

>  <i_f3d_flags>  (268) 
0

>  <s_epik_input>  (268) 
W0NIMl0xT1tDQEBIXShbT0hdKVtDQEhdMkMoW0NIM10pKFtDSDNdKVtDSDJdW0NASF0oW0NAQF0xMltDQF0zNDUpL1tDSF09W0NIXVxbQ0BASF02W0NAQEhdKFtPSF0pW0NASF0zT1tDQEhdKFtDSDJdW0NASF00W09IXSlbQ0gyXVtDQEhdNUM2KFtDSDNdKVtDSDNd

>  <s_epik_cmdline>  (268) 
J2VwaWtfcHl0aG9uJywgJy1waHQnLCAnMi4wJywgJy1waCcsICc3LjAnLCAnLXRuJywgJzgnLCAnLW1hJywgJzIwMCcsICctaW1hZScsICc8aW5maWxlLm1hZT4nLCAnLW9tYWUnLCAnPG91dGZpbGUubWFlPic=

>  <r_lp_tautomer_probability>  (268) 
1

>  <r_epik_Ionization_Penalty>  (268) 
1.98035e-07

>  <r_epik_Ionization_Penalty_Charging>  (268) 
0

>  <r_epik_Ionization_Penalty_Neutral>  (268) 
1.98035e-07

>  <r_epik_State_Penalty>  (268) 
-0

>  <r_epik_Charging_Adjusted_Penalty>  (268) 
0

>  <i_epik_Tot_Q>  (268) 
0

>  <i_epik_Tot_abs_Q>  (268) 
0

>  <s_epik_Chemistry_Notes>  (268) 
This compound contains an acetal/aminal-like group ( X-CH(R)-Y where X, Y are N, S, or O) that may be acid/base labile, releasing an aldehyde.

>  <s_lp_Force_Field>  (268) 
OPLS3e

>  <r_lp_Energy>  (268) 
95.0444

>  <b_lp_Chiralities_Consistent>  (268) 
1

>  <s_lp_Variant>  (268) 
77:0-1

>  <s_i_glide_gridfile>  (268) 
pfpi4k_grid

>  <i_i_glide_lignum>  (268) 
27

>  <i_i_glide_rotatable_bonds>  (268) 
3

>  <r_i_docking_score>  (268) 
-2.87055

>  <r_i_glide_ligand_efficiency>  (268) 
-0.10252

>  <r_i_glide_ligand_efficiency_sa>  (268) 
-0.31131

>  <r_i_glide_ligand_efficiency_ln>  (268) 
-0.662606

>  <r_i_glide_gscore>  (268) 
-2.87055

>  <r_i_glide_lipo>  (268) 
-0.475227

>  <r_i_glide_hbond>  (268) 
0

>  <r_i_glide_metal>  (268) 
-0

>  <r_i_glide_rewards>  (268) 
-0.746502

>  <r_i_glide_evdw>  (268) 
-23.9526

>  <r_i_glide_ecoul>  (268) 
-3.00717

>  <r_i_glide_erotb>  (268) 
0

>  <r_i_glide_esite>  (268) 
-0.000111582

>  <r_i_glide_emodel>  (268) 
-31.5665

>  <r_i_glide_energy>  (268) 
-26.9598

>  <r_i_glide_einternal>  (268) 
0.701688

>  <r_i_glide_intrahb_reward>  (268) 
-0

>  <i_i_glide_confnum>  (268) 
1

>  <i_i_glide_posenum>  (268) 
37

>  <r_i_glide_eff_state_penalty>  (268) 
0

>  <ligand_id>  (268) 
77

>  <original_smiles>  (268) 
CC1(C)CC2C=CC3C(O)C4OC5CC(O)C4(C(C5)C3(C)C)C23COC(O)C13

>  <smiles>  (268) 
[H]OC1([H])OC([H])([H])C23C([H])(C([H])=C([H])C4([H])C([H])(O[H])C5([H])OC6([H])C([H])([H])C([H])(O[H])C52C([H])(C6([H])[H])C4(C([H])([H])[H])C([H])([H])[H])C([H])([H])C(C([H])([H])[H])(C([H])([H])[H])C13[H]

$$$$
77:0:1
     RDKit          3D

 62 67  0  0  1  0  0  0  0  0999 V2000
    2.2161   -3.0587    7.5953 C   0  0  0  0  0  0  0  0  0  0  0  0
    3.1211   -3.0488    6.3419 C   0  0  0  0  0  0  0  0  0  0  0  0
    4.5053   -2.5400    6.8141 C   0  0  0  0  0  0  0  0  0  0  0  0
    3.2486   -4.4654    5.8242 C   0  0  0  0  0  0  0  0  0  0  0  0
    3.7254   -4.3094    4.3905 C   0  0  1  0  0  0  0  0  0  0  0  0
    3.6806   -5.6536    3.7031 C   0  0  0  0  0  0  0  0  0  0  0  0
    4.1549   -5.9353    2.4888 C   0  0  0  0  0  0  0  0  0  0  0  0
    4.7964   -4.9701    1.5136 C   0  0  2  0  0  0  0  0  0  0  0  0
    5.7820   -3.9581    2.1467 C   0  0  1  0  0  0  0  0  0  0  0  0
    6.9731   -3.9501    1.3732 O   0  0  0  0  0  0  0  0  0  0  0  0
    5.2209   -2.5148    2.4054 C   0  0  1  0  0  0  0  0  0  0  0  0
    5.7789   -1.7145    1.3408 O   0  0  0  0  0  0  0  0  0  0  0  0
    4.8862   -0.9046    0.5937 C   0  0  2  0  0  0  0  0  0  0  0  0
    4.2104    0.0110    1.5853 C   0  0  0  0  0  0  0  0  0  0  0  0
    3.2870   -0.8375    2.4668 C   0  0  1  0  0  0  0  0  0  0  0  0
    1.9442   -0.5775    2.0758 O   0  0  0  0  0  0  0  0  0  0  0  0
    3.6461   -2.3919    2.4459 C   0  0  1  0  0  0  0  0  0  0  0  0
    3.3121   -2.8821    0.9496 C   0  0  1  0  0  0  0  0  0  0  0  0
    3.8150   -1.7736   -0.0551 C   0  0  0  0  0  0  0  0  0  0  0  0
    3.7787   -4.3411    0.5208 C   0  0  0  0  0  0  0  0  0  0  0  0
    4.4896   -4.4214   -0.8551 C   0  0  0  0  0  0  0  0  0  0  0  0
    2.5055   -5.2148    0.3524 C   0  0  0  0  0  0  0  0  0  0  0  0
    2.9273   -3.1247    3.7460 C   0  0  1  0  0  0  0  0  0  0  0  0
    1.4521   -3.5620    3.4618 C   0  0  0  0  0  0  0  0  0  0  0  0
    0.6147   -3.0739    4.5059 O   0  0  0  0  0  0  0  0  0  0  0  0
    1.1903   -1.9007    4.9339 C   0  0  1  0  0  0  0  0  0  0  0  0
    0.5844   -1.3315    6.0692 O   0  0  0  0  0  0  0  0  0  0  0  0
    2.6923   -2.2430    5.0533 C   0  0  1  0  0  0  0  0  0  0  0  0
    2.6515   -3.6877    8.3737 H   0  0  0  0  0  0  0  0  0  0  0  0
    1.2227   -3.4623    7.3878 H   0  0  0  0  0  0  0  0  0  0  0  0
    2.1065   -2.0606    8.0204 H   0  0  0  0  0  0  0  0  0  0  0  0
    5.2306   -2.4687    6.0026 H   0  0  0  0  0  0  0  0  0  0  0  0
    4.9288   -3.1897    7.5796 H   0  0  0  0  0  0  0  0  0  0  0  0
    4.4161   -1.5438    7.2461 H   0  0  0  0  0  0  0  0  0  0  0  0
    3.9328   -5.0704    6.4179 H   0  0  0  0  0  0  0  0  0  0  0  0
    2.2791   -4.9660    5.8398 H   0  0  0  0  0  0  0  0  0  0  0  0
    4.7606   -4.0263    4.5222 H   0  0  0  0  0  0  0  0  0  0  0  0
    3.2400   -6.4654    4.2625 H   0  0  0  0  0  0  0  0  0  0  0  0
    4.0551   -6.9498    2.1258 H   0  0  0  0  0  0  0  0  0  0  0  0
    5.4171   -5.6851    0.9669 H   0  0  0  0  0  0  0  0  0  0  0  0
    6.1465   -4.3840    3.0786 H   0  0  0  0  0  0  0  0  0  0  0  0
    7.3786   -4.7961    1.4563 H   0  0  0  0  0  0  0  0  0  0  0  0
    5.6450   -2.1238    3.3311 H   0  0  0  0  0  0  0  0  0  0  0  0
    5.4395   -0.3288   -0.1538 H   0  0  0  0  0  0  0  0  0  0  0  0
    4.9763    0.4862    2.1991 H   0  0  0  0  0  0  0  0  0  0  0  0
    3.6715    0.8141    1.0795 H   0  0  0  0  0  0  0  0  0  0  0  0
    3.4259   -0.3640    3.4272 H   0  0  0  0  0  0  0  0  0  0  0  0
    1.8539   -0.6932    1.1366 H   0  0  0  0  0  0  0  0  0  0  0  0
    2.2330   -2.8557    0.8093 H   0  0  0  0  0  0  0  0  0  0  0  0
    2.9906   -1.1161   -0.3148 H   0  0  0  0  0  0  0  0  0  0  0  0
    4.1473   -2.0753   -1.0399 H   0  0  0  0  0  0  0  0  0  0  0  0
    3.8367   -4.0906   -1.6646 H   0  0  0  0  0  0  0  0  0  0  0  0
    4.7538   -5.4517   -1.1068 H   0  0  0  0  0  0  0  0  0  0  0  0
    5.4167   -3.8452   -0.8881 H   0  0  0  0  0  0  0  0  0  0  0  0
    1.8690   -4.8263   -0.4430 H   0  0  0  0  0  0  0  0  0  0  0  0
    1.9025   -5.2499    1.2566 H   0  0  0  0  0  0  0  0  0  0  0  0
    2.7571   -6.2414    0.0818 H   0  0  0  0  0  0  0  0  0  0  0  0
    1.0792   -3.1552    2.5266 H   0  0  0  0  0  0  0  0  0  0  0  0
    1.3140   -4.6417    3.4141 H   0  0  0  0  0  0  0  0  0  0  0  0
    1.0324   -1.1582    4.1634 H   0  0  0  0  0  0  0  0  0  0  0  0
   -0.1705   -0.8487    5.7710 H   0  0  0  0  0  0  0  0  0  0  0  0
    3.2536   -1.3187    5.1124 H   0  0  0  0  0  0  0  0  0  0  0  0
  1  2  1  0
  1 29  1  0
  1 30  1  0
  1 31  1  0
  2 28  1  0
  2  3  1  0
  2  4  1  0
  3 32  1  0
  3 33  1  0
  3 34  1  0
  4  5  1  0
  4 35  1  0
  4 36  1  0
  5 23  1  0
  5  6  1  0
  5 37  1  1
  6  7  2  3
  6 38  1  0
  7  8  1  0
  7 39  1  0
  8 20  1  0
  8  9  1  0
  8 40  1  6
  9 10  1  0
  9 11  1  0
  9 41  1  1
 10 42  1  0
 11 17  1  0
 11 12  1  0
 11 43  1  1
 12 13  1  0
 13 19  1  0
 13 14  1  0
 13 44  1  6
 14 15  1  0
 14 45  1  0
 14 46  1  0
 15 16  1  0
 15 17  1  0
 15 47  1  1
 16 48  1  0
 17 18  1  0
 17 23  1  1
 18 19  1  0
 18 20  1  0
 18 49  1  1
 19 50  1  0
 19 51  1  0
 20 21  1  0
 20 22  1  0
 21 52  1  0
 21 53  1  0
 21 54  1  0
 22 55  1  0
 22 56  1  0
 22 57  1  0
 23 28  1  0
 23 24  1  6
 24 25  1  0
 24 58  1  0
 24 59  1  0
 25 26  1  0
 26 27  1  0
 26 28  1  0
 26 60  1  6
 27 61  1  0
 28 62  1  6
M  END
>  <i_m_ct_stereo_status>  (269) 
1

>  <s_m_source_file>  (269) 
/var/tmp/pbs.5076255.sched01/tmpavn81tjv/78c0r2i372.sdf

>  <i_m_source_file_index>  (269) 
27

>  <i_lp_mmshare_version>  (269) 
48012

>  <i_f3d_flags>  (269) 
0

>  <s_epik_input>  (269) 
W0NIMl0xT1tDQEBIXShbT0hdKVtDQEhdMkMoW0NIM10pKFtDSDNdKVtDSDJdW0NASF0oW0NAQF0xMltDQF0zNDUpL1tDSF09W0NIXVxbQ0BASF02W0NAQEhdKFtPSF0pW0NASF0zT1tDQEhdKFtDSDJdW0NASF00W09IXSlbQ0gyXVtDQEhdNUM2KFtDSDNdKVtDSDNd

>  <s_epik_cmdline>  (269) 
J2VwaWtfcHl0aG9uJywgJy1waHQnLCAnMi4wJywgJy1waCcsICc3LjAnLCAnLXRuJywgJzgnLCAnLW1hJywgJzIwMCcsICctaW1hZScsICc8aW5maWxlLm1hZT4nLCAnLW9tYWUnLCAnPG91dGZpbGUubWFlPic=

>  <r_lp_tautomer_probability>  (269) 
1

>  <r_epik_Ionization_Penalty>  (269) 
1.98035e-07

>  <r_epik_Ionization_Penalty_Charging>  (269) 
0

>  <r_epik_Ionization_Penalty_Neutral>  (269) 
1.98035e-07

>  <r_epik_State_Penalty>  (269) 
-0

>  <r_epik_Charging_Adjusted_Penalty>  (269) 
0

>  <i_epik_Tot_Q>  (269) 
0

>  <i_epik_Tot_abs_Q>  (269) 
0

>  <s_epik_Chemistry_Notes>  (269) 
This compound contains an acetal/aminal-like group ( X-CH(R)-Y where X, Y are N, S, or O) that may be acid/base labile, releasing an aldehyde.

>  <s_lp_Force_Field>  (269) 
OPLS3e

>  <r_lp_Energy>  (269) 
95.0444

>  <b_lp_Chiralities_Consistent>  (269) 
1

>  <s_lp_Variant>  (269) 
77:0-1

>  <s_i_glide_gridfile>  (269) 
pfpi4k_grid

>  <i_i_glide_lignum>  (269) 
27

>  <i_i_glide_rotatable_bonds>  (269) 
3

>  <r_i_docking_score>  (269) 
-2.34776

>  <r_i_glide_ligand_efficiency>  (269) 
-0.0838484

>  <r_i_glide_ligand_efficiency_sa>  (269) 
-0.254613

>  <r_i_glide_ligand_efficiency_ln>  (269) 
-0.541931

>  <r_i_glide_gscore>  (269) 
-2.34776

>  <r_i_glide_lipo>  (269) 
-0.299481

>  <r_i_glide_hbond>  (269) 
-0.0749726

>  <r_i_glide_metal>  (269) 
-0

>  <r_i_glide_rewards>  (269) 
-0.746502

>  <r_i_glide_evdw>  (269) 
-19.8215

>  <r_i_glide_ecoul>  (269) 
-1.5715

>  <r_i_glide_erotb>  (269) 
0

>  <r_i_glide_esite>  (269) 
0

>  <r_i_glide_emodel>  (269) 
-24.797

>  <r_i_glide_energy>  (269) 
-21.393

>  <r_i_glide_einternal>  (269) 
1.01059

>  <r_i_glide_intrahb_reward>  (269) 
-0

>  <i_i_glide_confnum>  (269) 
1

>  <i_i_glide_posenum>  (269) 
15

>  <r_i_glide_eff_state_penalty>  (269) 
0

>  <ligand_id>  (269) 
77

>  <original_smiles>  (269) 
CC1(C)CC2C=CC3C(O)C4OC5CC(O)C4(C(C5)C3(C)C)C23COC(O)C13

>  <smiles>  (269) 
[H]OC1([H])OC([H])([H])C23C([H])(C([H])=C([H])C4([H])C([H])(O[H])C5([H])OC6([H])C([H])([H])C([H])(O[H])C52C([H])(C6([H])[H])C4(C([H])([H])[H])C([H])([H])[H])C([H])([H])C(C([H])([H])[H])(C([H])([H])[H])C13[H]

$$$$
77:0:2
     RDKit          3D

 62 67  0  0  1  0  0  0  0  0999 V2000
    2.3695   -3.3951    7.5713 C   0  0  0  0  0  0  0  0  0  0  0  0
    3.2424   -3.3052    6.2971 C   0  0  0  0  0  0  0  0  0  0  0  0
    4.6375   -2.8209    6.7663 C   0  0  0  0  0  0  0  0  0  0  0  0
    3.3605   -4.6885    5.6922 C   0  0  0  0  0  0  0  0  0  0  0  0
    3.8007   -4.4444    4.2598 C   0  0  1  0  0  0  0  0  0  0  0  0
    3.7440   -5.7434    3.4911 C   0  0  0  0  0  0  0  0  0  0  0  0
    4.1904   -5.9477    2.2501 C   0  0  0  0  0  0  0  0  0  0  0  0
    4.8100   -4.9211    1.3219 C   0  0  2  0  0  0  0  0  0  0  0  0
    5.8035   -3.9482    2.0087 C   0  0  1  0  0  0  0  0  0  0  0  0
    7.0011   -3.8798    1.2504 O   0  0  0  0  0  0  0  0  0  0  0  0
    5.2441   -2.5261    2.3592 C   0  0  1  0  0  0  0  0  0  0  0  0
    5.7721   -1.6665    1.3259 O   0  0  0  0  0  0  0  0  0  0  0  0
    4.8605   -0.8144    0.6535 C   0  0  2  0  0  0  0  0  0  0  0  0
    4.2095    0.0409    1.7144 C   0  0  0  0  0  0  0  0  0  0  0  0
    3.3105   -0.8630    2.5644 C   0  0  1  0  0  0  0  0  0  0  0  0
    1.9605   -0.5814    2.2139 O   0  0  0  0  0  0  0  0  0  0  0  0
    3.6700   -2.4128    2.4391 C   0  0  1  0  0  0  0  0  0  0  0  0
    3.3026   -2.8124    0.9235 C   0  0  1  0  0  0  0  0  0  0  0  0
    3.7731   -1.6426   -0.0213 C   0  0  0  0  0  0  0  0  0  0  0  0
    3.7622   -4.2387    0.3922 C   0  0  0  0  0  0  0  0  0  0  0  0
    4.4280   -4.2359   -1.0112 C   0  0  0  0  0  0  0  0  0  0  0  0
    2.4853   -5.1019    0.2045 C   0  0  0  0  0  0  0  0  0  0  0  0
    2.9843   -3.2264    3.7076 C   0  0  1  0  0  0  0  0  0  0  0  0
    1.5046   -3.6530    3.4344 C   0  0  0  0  0  0  0  0  0  0  0  0
    0.6966   -3.2333    4.5307 O   0  0  0  0  0  0  0  0  0  0  0  0
    1.2748   -2.0811    5.0060 C   0  0  1  0  0  0  0  0  0  0  0  0
    0.7029   -1.5913    6.1976 O   0  0  0  0  0  0  0  0  0  0  0  0
    2.7804   -2.4241    5.0696 C   0  0  1  0  0  0  0  0  0  0  0  0
    2.8258   -4.0698    8.2963 H   0  0  0  0  0  0  0  0  0  0  0  0
    1.3724   -3.7896    7.3653 H   0  0  0  0  0  0  0  0  0  0  0  0
    2.2688   -2.4284    8.0648 H   0  0  0  0  0  0  0  0  0  0  0  0
    5.3431   -2.6985    5.9441 H   0  0  0  0  0  0  0  0  0  0  0  0
    5.0809   -3.5148    7.4795 H   0  0  0  0  0  0  0  0  0  0  0  0
    4.5596   -1.8542    7.2621 H   0  0  0  0  0  0  0  0  0  0  0  0
    4.0614   -5.3236    6.2322 H   0  0  0  0  0  0  0  0  0  0  0  0
    2.3931   -5.1927    5.7034 H   0  0  0  0  0  0  0  0  0  0  0  0
    4.8364   -4.1647    4.3868 H   0  0  0  0  0  0  0  0  0  0  0  0
    3.3188   -6.5891    4.0108 H   0  0  0  0  0  0  0  0  0  0  0  0
    4.0831   -6.9388    1.8297 H   0  0  0  0  0  0  0  0  0  0  0  0
    5.4217   -5.5946    0.7159 H   0  0  0  0  0  0  0  0  0  0  0  0
    6.1809   -4.4317    2.9058 H   0  0  0  0  0  0  0  0  0  0  0  0
    7.3774   -4.7418    1.2191 H   0  0  0  0  0  0  0  0  0  0  0  0
    5.6885   -2.1851    3.2948 H   0  0  0  0  0  0  0  0  0  0  0  0
    5.3986   -0.2033   -0.0747 H   0  0  0  0  0  0  0  0  0  0  0  0
    4.9882    0.4838    2.3356 H   0  0  0  0  0  0  0  0  0  0  0  0
    3.6556    0.8706    1.2708 H   0  0  0  0  0  0  0  0  0  0  0  0
    3.4698   -0.4458    3.5463 H   0  0  0  0  0  0  0  0  0  0  0  0
    1.8478   -0.6687    1.2762 H   0  0  0  0  0  0  0  0  0  0  0  0
    2.2204   -2.7819    0.8112 H   0  0  0  0  0  0  0  0  0  0  0  0
    2.9376   -0.9745   -0.2135 H   0  0  0  0  0  0  0  0  0  0  0  0
    4.0804   -1.8823   -1.0308 H   0  0  0  0  0  0  0  0  0  0  0  0
    3.7544   -3.8561   -1.7829 H   0  0  0  0  0  0  0  0  0  0  0  0
    4.6935   -5.2468   -1.3271 H   0  0  0  0  0  0  0  0  0  0  0  0
    5.3531   -3.6561   -1.0309 H   0  0  0  0  0  0  0  0  0  0  0  0
    1.8285   -4.6704   -0.5521 H   0  0  0  0  0  0  0  0  0  0  0  0
    1.9045   -5.1927    1.1192 H   0  0  0  0  0  0  0  0  0  0  0  0
    2.7319   -6.1106   -0.1279 H   0  0  0  0  0  0  0  0  0  0  0  0
    1.1054   -3.1903    2.5365 H   0  0  0  0  0  0  0  0  0  0  0  0
    1.3672   -4.7282    3.3238 H   0  0  0  0  0  0  0  0  0  0  0  0
    1.0839   -1.3002    4.2815 H   0  0  0  0  0  0  0  0  0  0  0  0
    1.2485   -0.8861    6.5112 H   0  0  0  0  0  0  0  0  0  0  0  0
    3.3426   -1.5056    5.1686 H   0  0  0  0  0  0  0  0  0  0  0  0
  1  2  1  0
  1 29  1  0
  1 30  1  0
  1 31  1  0
  2 28  1  0
  2  3  1  0
  2  4  1  0
  3 32  1  0
  3 33  1  0
  3 34  1  0
  4  5  1  0
  4 35  1  0
  4 36  1  0
  5 23  1  0
  5  6  1  0
  5 37  1  1
  6  7  2  3
  6 38  1  0
  7  8  1  0
  7 39  1  0
  8 20  1  0
  8  9  1  0
  8 40  1  6
  9 10  1  0
  9 11  1  0
  9 41  1  1
 10 42  1  0
 11 17  1  0
 11 12  1  0
 11 43  1  1
 12 13  1  0
 13 19  1  0
 13 14  1  0
 13 44  1  6
 14 15  1  0
 14 45  1  0
 14 46  1  0
 15 16  1  0
 15 17  1  0
 15 47  1  1
 16 48  1  0
 17 18  1  0
 17 23  1  1
 18 19  1  0
 18 20  1  0
 18 49  1  1
 19 50  1  0
 19 51  1  0
 20 21  1  0
 20 22  1  0
 21 52  1  0
 21 53  1  0
 21 54  1  0
 22 55  1  0
 22 56  1  0
 22 57  1  0
 23 28  1  0
 23 24  1  6
 24 25  1  0
 24 58  1  0
 24 59  1  0
 25 26  1  0
 26 27  1  0
 26 28  1  0
 26 60  1  6
 27 61  1  0
 28 62  1  6
M  END
>  <i_m_ct_stereo_status>  (270) 
1

>  <s_m_source_file>  (270) 
/var/tmp/pbs.5076255.sched01/tmpavn81tjv/78c0r2i372.sdf

>  <i_m_source_file_index>  (270) 
27

>  <i_lp_mmshare_version>  (270) 
48012

>  <i_f3d_flags>  (270) 
0

>  <s_epik_input>  (270) 
W0NIMl0xT1tDQEBIXShbT0hdKVtDQEhdMkMoW0NIM10pKFtDSDNdKVtDSDJdW0NASF0oW0NAQF0xMltDQF0zNDUpL1tDSF09W0NIXVxbQ0BASF02W0NAQEhdKFtPSF0pW0NASF0zT1tDQEhdKFtDSDJdW0NASF00W09IXSlbQ0gyXVtDQEhdNUM2KFtDSDNdKVtDSDNd

>  <s_epik_cmdline>  (270) 
J2VwaWtfcHl0aG9uJywgJy1waHQnLCAnMi4wJywgJy1waCcsICc3LjAnLCAnLXRuJywgJzgnLCAnLW1hJywgJzIwMCcsICctaW1hZScsICc8aW5maWxlLm1hZT4nLCAnLW9tYWUnLCAnPG91dGZpbGUubWFlPic=

>  <r_lp_tautomer_probability>  (270) 
1

>  <r_epik_Ionization_Penalty>  (270) 
1.98035e-07

>  <r_epik_Ionization_Penalty_Charging>  (270) 
0

>  <r_epik_Ionization_Penalty_Neutral>  (270) 
1.98035e-07

>  <r_epik_State_Penalty>  (270) 
-0

>  <r_epik_Charging_Adjusted_Penalty>  (270) 
0

>  <i_epik_Tot_Q>  (270) 
0

>  <i_epik_Tot_abs_Q>  (270) 
0

>  <s_epik_Chemistry_Notes>  (270) 
This compound contains an acetal/aminal-like group ( X-CH(R)-Y where X, Y are N, S, or O) that may be acid/base labile, releasing an aldehyde.

>  <s_lp_Force_Field>  (270) 
OPLS3e

>  <r_lp_Energy>  (270) 
95.0444

>  <b_lp_Chiralities_Consistent>  (270) 
1

>  <s_lp_Variant>  (270) 
77:0-1

>  <s_i_glide_gridfile>  (270) 
pfpi4k_grid

>  <i_i_glide_lignum>  (270) 
27

>  <i_i_glide_rotatable_bonds>  (270) 
3

>  <r_i_docking_score>  (270) 
-2.30908

>  <r_i_glide_ligand_efficiency>  (270) 
-0.0824672

>  <r_i_glide_ligand_efficiency_sa>  (270) 
-0.250419

>  <r_i_glide_ligand_efficiency_ln>  (270) 
-0.533004

>  <r_i_glide_gscore>  (270) 
-2.30908

>  <r_i_glide_lipo>  (270) 
-0.309294

>  <r_i_glide_hbond>  (270) 
-0.0271428

>  <r_i_glide_metal>  (270) 
-0

>  <r_i_glide_rewards>  (270) 
-0.746502

>  <r_i_glide_evdw>  (270) 
-19.9512

>  <r_i_glide_ecoul>  (270) 
-1.52388

>  <r_i_glide_erotb>  (270) 
0

>  <r_i_glide_esite>  (270) 
0

>  <r_i_glide_emodel>  (270) 
-24.314

>  <r_i_glide_energy>  (270) 
-21.4751

>  <r_i_glide_einternal>  (270) 
2.33697

>  <r_i_glide_intrahb_reward>  (270) 
-0

>  <i_i_glide_confnum>  (270) 
1

>  <i_i_glide_posenum>  (270) 
27

>  <r_i_glide_eff_state_penalty>  (270) 
0

>  <ligand_id>  (270) 
77

>  <original_smiles>  (270) 
CC1(C)CC2C=CC3C(O)C4OC5CC(O)C4(C(C5)C3(C)C)C23COC(O)C13

>  <smiles>  (270) 
[H]OC1([H])OC([H])([H])C23C([H])(C([H])=C([H])C4([H])C([H])(O[H])C5([H])OC6([H])C([H])([H])C([H])(O[H])C52C([H])(C6([H])[H])C4(C([H])([H])[H])C([H])([H])[H])C([H])([H])C(C([H])([H])[H])(C([H])([H])[H])C13[H]

$$$$
77:1:0
     RDKit          3D

 62 67  0  0  1  0  0  0  0  0999 V2000
    5.0103   -2.3941   -2.5717 C   0  0  0  0  0  0  0  0  0  0  0  0
    4.5477   -2.4688   -1.1018 C   0  0  0  0  0  0  0  0  0  0  0  0
    3.8369   -1.1420   -0.7607 C   0  0  0  0  0  0  0  0  0  0  0  0
    3.5774   -3.6033   -0.9234 C   0  0  0  0  0  0  0  0  0  0  0  0
    3.6425   -3.9713    0.5591 C   0  0  1  0  0  0  0  0  0  0  0  0
    3.1221   -5.3547    0.7012 C   0  0  0  0  0  0  0  0  0  0  0  0
    2.7593   -5.7268    1.9221 C   0  0  0  0  0  0  0  0  0  0  0  0
    3.6652   -6.6364    2.7170 C   0  0  1  0  0  0  0  0  0  0  0  0
    4.7059   -7.4133    1.8503 C   0  0  1  0  0  0  0  0  0  0  0  0
    4.0709   -8.2381    0.8917 O   0  0  0  0  0  0  0  0  0  0  0  0
    5.8361   -6.5321    1.1750 C   0  0  2  0  0  0  0  0  0  0  0  0
    7.0379   -7.2971    1.4368 O   0  0  0  0  0  0  0  0  0  0  0  0
    7.8190   -6.8640    2.5561 C   0  0  1  0  0  0  0  0  0  0  0  0
    8.5715   -5.6266    2.1485 C   0  0  0  0  0  0  0  0  0  0  0  0
    7.5693   -4.6997    1.4588 C   0  0  1  0  0  0  0  0  0  0  0  0
    8.0312   -4.7519    0.1461 O   0  0  0  0  0  0  0  0  0  0  0  0
    6.0298   -5.0535    1.7166 C   0  0  2  0  0  0  0  0  0  0  0  0
    5.8728   -5.3968    3.2969 C   0  0  2  0  0  0  0  0  0  0  0  0
    6.9292   -6.4785    3.7196 C   0  0  0  0  0  0  0  0  0  0  0  0
    4.4326   -5.8291    3.8280 C   0  0  0  0  0  0  0  0  0  0  0  0
    3.6999   -4.5672    4.3772 C   0  0  0  0  0  0  0  0  0  0  0  0
    4.4515   -6.7312    5.0992 C   0  0  0  0  0  0  0  0  0  0  0  0
    5.1402   -3.7626    1.0890 C   0  0  2  0  0  0  0  0  0  0  0  0
    5.2194   -2.5617    2.0798 C   0  0  0  0  0  0  0  0  0  0  0  0
    6.3044   -1.7268    1.7218 O   0  0  0  0  0  0  0  0  0  0  0  0
    6.4980   -1.7610    0.3578 C   0  0  1  0  0  0  0  0  0  0  0  0
    7.8674   -1.8695    0.0223 O   0  0  0  0  0  0  0  0  0  0  0  0
    5.6884   -2.9702   -0.1653 C   0  0  2  0  0  0  0  0  0  0  0  0
    4.1876   -2.1403   -3.2440 H   0  0  0  0  0  0  0  0  0  0  0  0
    5.4587   -3.3205   -2.9340 H   0  0  0  0  0  0  0  0  0  0  0  0
    5.7562   -1.6105   -2.6543 H   0  0  0  0  0  0  0  0  0  0  0  0
    3.5367   -1.0556    0.2781 H   0  0  0  0  0  0  0  0  0  0  0  0
    2.9370   -1.0562   -1.3631 H   0  0  0  0  0  0  0  0  0  0  0  0
    4.4234   -0.2652   -1.0237 H   0  0  0  0  0  0  0  0  0  0  0  0
    2.5663   -3.3673   -1.2614 H   0  0  0  0  0  0  0  0  0  0  0  0
    3.9386   -4.4432   -1.5120 H   0  0  0  0  0  0  0  0  0  0  0  0
    2.9536   -3.3070    1.0848 H   0  0  0  0  0  0  0  0  0  0  0  0
    3.6534   -6.0127    0.0423 H   0  0  0  0  0  0  0  0  0  0  0  0
    2.2321   -5.0019    2.5126 H   0  0  0  0  0  0  0  0  0  0  0  0
    2.9807   -7.3407    3.1924 H   0  0  0  0  0  0  0  0  0  0  0  0
    5.1763   -8.1401    2.5180 H   0  0  0  0  0  0  0  0  0  0  0  0
    3.6586   -8.9663    1.3285 H   0  0  0  0  0  0  0  0  0  0  0  0
    5.7235   -6.5023    0.0922 H   0  0  0  0  0  0  0  0  0  0  0  0
    8.5291   -7.6398    2.8559 H   0  0  0  0  0  0  0  0  0  0  0  0
    8.9951   -5.1365    3.0229 H   0  0  0  0  0  0  0  0  0  0  0  0
    9.4171   -5.8903    1.5178 H   0  0  0  0  0  0  0  0  0  0  0  0
    7.7685   -3.6906    1.7809 H   0  0  0  0  0  0  0  0  0  0  0  0
    7.3960   -4.3459   -0.4410 H   0  0  0  0  0  0  0  0  0  0  0  0
    6.1888   -4.5337    3.8828 H   0  0  0  0  0  0  0  0  0  0  0  0
    6.5404   -7.4224    4.0819 H   0  0  0  0  0  0  0  0  0  0  0  0
    7.5268   -6.1037    4.5565 H   0  0  0  0  0  0  0  0  0  0  0  0
    4.2802   -4.0995    5.1785 H   0  0  0  0  0  0  0  0  0  0  0  0
    2.7202   -4.8125    4.7930 H   0  0  0  0  0  0  0  0  0  0  0  0
    3.5355   -3.7987    3.6258 H   0  0  0  0  0  0  0  0  0  0  0  0
    5.1695   -6.3799    5.8443 H   0  0  0  0  0  0  0  0  0  0  0  0
    4.6771   -7.7756    4.8677 H   0  0  0  0  0  0  0  0  0  0  0  0
    3.4744   -6.7722    5.5835 H   0  0  0  0  0  0  0  0  0  0  0  0
    4.3098   -1.9593    2.0700 H   0  0  0  0  0  0  0  0  0  0  0  0
    5.3672   -2.8173    3.1223 H   0  0  0  0  0  0  0  0  0  0  0  0
    6.1964   -0.7972   -0.0323 H   0  0  0  0  0  0  0  0  0  0  0  0
    8.1804   -2.7043    0.3425 H   0  0  0  0  0  0  0  0  0  0  0  0
    6.2817   -3.5987   -0.8219 H   0  0  0  0  0  0  0  0  0  0  0  0
  1  2  1  0
  1 29  1  0
  1 30  1  0
  1 31  1  0
  2 28  1  0
  2  3  1  0
  2  4  1  0
  3 32  1  0
  3 33  1  0
  3 34  1  0
  4  5  1  0
  4 35  1  0
  4 36  1  0
  5 23  1  0
  5  6  1  0
  5 37  1  1
  6  7  2  3
  6 38  1  0
  7  8  1  0
  7 39  1  0
  8 20  1  0
  8  9  1  0
  8 40  1  1
  9 10  1  0
  9 11  1  0
  9 41  1  1
 10 42  1  0
 11 17  1  0
 11 12  1  0
 11 43  1  6
 12 13  1  0
 13 19  1  0
 13 14  1  0
 13 44  1  1
 14 15  1  0
 14 45  1  0
 14 46  1  0
 15 16  1  0
 15 17  1  0
 15 47  1  1
 16 48  1  0
 17 18  1  0
 17 23  1  6
 18 19  1  0
 18 20  1  0
 18 49  1  1
 19 50  1  0
 19 51  1  0
 20 21  1  0
 20 22  1  0
 21 52  1  0
 21 53  1  0
 21 54  1  0
 22 55  1  0
 22 56  1  0
 22 57  1  0
 23 28  1  0
 23 24  1  1
 24 25  1  0
 24 58  1  0
 24 59  1  0
 25 26  1  0
 26 27  1  0
 26 28  1  0
 26 60  1  6
 27 61  1  0
 28 62  1  6
M  END
>  <i_m_ct_stereo_status>  (271) 
1

>  <s_m_source_file>  (271) 
/var/tmp/pbs.5076255.sched01/tmpavn81tjv/78c0r2i372.sdf

>  <i_m_source_file_index>  (271) 
28

>  <i_lp_mmshare_version>  (271) 
48012

>  <i_f3d_flags>  (271) 
2

>  <s_epik_input>  (271) 
W0NIMl0xT1tDQEBIXShbT0hdKVtDQEhdMkMoW0NIM10pKFtDSDNdKVtDSDJdW0NASF0oW0NAQF0xMltDQF0zNDUpL1tDSF09W0NIXVxbQ0BASF02W0NAQEhdKFtPSF0pW0NASF0zT1tDQEhdKFtDSDJdW0NASF00W09IXSlbQ0gyXVtDQEhdNUM2KFtDSDNdKVtDSDNd

>  <s_epik_cmdline>  (271) 
J2VwaWtfcHl0aG9uJywgJy1waHQnLCAnMi4wJywgJy1waCcsICc3LjAnLCAnLXRuJywgJzgnLCAnLW1hJywgJzIwMCcsICctaW1hZScsICc8aW5maWxlLm1hZT4nLCAnLW9tYWUnLCAnPG91dGZpbGUubWFlPic=

>  <r_lp_tautomer_probability>  (271) 
1

>  <r_epik_Ionization_Penalty>  (271) 
1.98035e-07

>  <r_epik_Ionization_Penalty_Charging>  (271) 
0

>  <r_epik_Ionization_Penalty_Neutral>  (271) 
1.98035e-07

>  <r_epik_State_Penalty>  (271) 
-0

>  <r_epik_Charging_Adjusted_Penalty>  (271) 
0

>  <i_epik_Tot_Q>  (271) 
0

>  <i_epik_Tot_abs_Q>  (271) 
0

>  <s_epik_Chemistry_Notes>  (271) 
This compound contains an acetal/aminal-like group ( X-CH(R)-Y where X, Y are N, S, or O) that may be acid/base labile, releasing an aldehyde.

>  <s_lp_Force_Field>  (271) 
OPLS3e

>  <r_lp_Energy>  (271) 
141.836

>  <b_lp_Chiralities_Consistent>  (271) 
0

>  <s_lp_Variant>  (271) 
77:0-2

>  <s_i_glide_gridfile>  (271) 
pfpi4k_grid

>  <i_i_glide_lignum>  (271) 
28

>  <i_i_glide_rotatable_bonds>  (271) 
3

>  <r_i_docking_score>  (271) 
-3.16827

>  <r_i_glide_ligand_efficiency>  (271) 
-0.113153

>  <r_i_glide_ligand_efficiency_sa>  (271) 
-0.343598

>  <r_i_glide_ligand_efficiency_ln>  (271) 
-0.73133

>  <r_i_glide_gscore>  (271) 
-3.16827

>  <r_i_glide_lipo>  (271) 
-0.610056

>  <r_i_glide_hbond>  (271) 
0

>  <r_i_glide_metal>  (271) 
-0

>  <r_i_glide_rewards>  (271) 
-0.788092

>  <r_i_glide_evdw>  (271) 
-24.9964

>  <r_i_glide_ecoul>  (271) 
-3.46868

>  <r_i_glide_erotb>  (271) 
0

>  <r_i_glide_esite>  (271) 
0

>  <r_i_glide_emodel>  (271) 
-33.0215

>  <r_i_glide_energy>  (271) 
-28.4651

>  <r_i_glide_einternal>  (271) 
0.78668

>  <r_i_glide_intrahb_reward>  (271) 
-0

>  <i_i_glide_confnum>  (271) 
2

>  <i_i_glide_posenum>  (271) 
9

>  <r_i_glide_eff_state_penalty>  (271) 
0

>  <ligand_id>  (271) 
77

>  <original_smiles>  (271) 
CC1(C)CC2C=CC3C(O)C4OC5CC(O)C4(C(C5)C3(C)C)C23COC(O)C13

>  <smiles>  (271) 
[H]OC1([H])OC([H])([H])C23C([H])(C([H])=C([H])C4([H])C([H])(O[H])C5([H])OC6([H])C([H])([H])C([H])(O[H])C52C([H])(C6([H])[H])C4(C([H])([H])[H])C([H])([H])[H])C([H])([H])C(C([H])([H])[H])(C([H])([H])[H])C13[H]

$$$$
77:1:1
     RDKit          3D

 62 67  0  0  1  0  0  0  0  0999 V2000
    5.0364   -2.5238   -2.5687 C   0  0  0  0  0  0  0  0  0  0  0  0
    4.5686   -2.6041   -1.0998 C   0  0  0  0  0  0  0  0  0  0  0  0
    3.8336   -1.2825   -0.7608 C   0  0  0  0  0  0  0  0  0  0  0  0
    3.6111   -3.7500   -0.9236 C   0  0  0  0  0  0  0  0  0  0  0  0
    3.6610   -4.1149    0.5586 C   0  0  1  0  0  0  0  0  0  0  0  0
    3.1470   -5.5019    0.6943 C   0  0  0  0  0  0  0  0  0  0  0  0
    2.7755   -5.8854    1.9065 C   0  0  0  0  0  0  0  0  0  0  0  0
    3.6848   -6.7871    2.7125 C   0  0  1  0  0  0  0  0  0  0  0  0
    4.7425   -7.5532    1.8523 C   0  0  1  0  0  0  0  0  0  0  0  0
    4.1323   -8.3875    0.8837 O   0  0  0  0  0  0  0  0  0  0  0  0
    5.8670   -6.6544    1.1863 C   0  0  2  0  0  0  0  0  0  0  0  0
    7.0767   -7.4055    1.4502 O   0  0  0  0  0  0  0  0  0  0  0  0
    7.8447   -6.9780    2.5867 C   0  0  1  0  0  0  0  0  0  0  0  0
    8.5857   -5.7286    2.1932 C   0  0  0  0  0  0  0  0  0  0  0  0
    7.5808   -4.8151    1.4908 C   0  0  1  0  0  0  0  0  0  0  0  0
    8.0136   -4.9296    0.1500 O   0  0  0  0  0  0  0  0  0  0  0  0
    6.0428   -5.1759    1.7410 C   0  0  2  0  0  0  0  0  0  0  0  0
    5.8729   -5.5209    3.3185 C   0  0  2  0  0  0  0  0  0  0  0  0
    6.9385   -6.5954    3.7459 C   0  0  0  0  0  0  0  0  0  0  0  0
    4.4309   -5.9692    3.8335 C   0  0  0  0  0  0  0  0  0  0  0  0
    3.6824   -4.7165    4.3733 C   0  0  0  0  0  0  0  0  0  0  0  0
    4.4477   -6.8788    5.1002 C   0  0  0  0  0  0  0  0  0  0  0  0
    5.1475   -3.8915    1.1039 C   0  0  2  0  0  0  0  0  0  0  0  0
    5.2011   -2.6929    2.0955 C   0  0  0  0  0  0  0  0  0  0  0  0
    6.2785   -1.8417    1.7478 O   0  0  0  0  0  0  0  0  0  0  0  0
    6.4999   -1.8773    0.3906 C   0  0  1  0  0  0  0  0  0  0  0  0
    7.8621   -1.9897    0.0715 O   0  0  0  0  0  0  0  0  0  0  0  0
    5.7051   -3.0900   -0.1486 C   0  0  2  0  0  0  0  0  0  0  0  0
    4.2122   -2.2850   -3.2425 H   0  0  0  0  0  0  0  0  0  0  0  0
    5.4929   -3.4500   -2.9189 H   0  0  0  0  0  0  0  0  0  0  0  0
    5.7799   -1.7394   -2.6727 H   0  0  0  0  0  0  0  0  0  0  0  0
    3.5273   -1.2016    0.2778 H   0  0  0  0  0  0  0  0  0  0  0  0
    2.9367   -1.1998   -1.3651 H   0  0  0  0  0  0  0  0  0  0  0  0
    4.4152   -0.3961   -1.0119 H   0  0  0  0  0  0  0  0  0  0  0  0
    2.6034   -3.5313   -1.2748 H   0  0  0  0  0  0  0  0  0  0  0  0
    3.9926   -4.5853   -1.5115 H   0  0  0  0  0  0  0  0  0  0  0  0
    2.9592   -3.4588    1.0788 H   0  0  0  0  0  0  0  0  0  0  0  0
    3.6899   -6.1567    0.0388 H   0  0  0  0  0  0  0  0  0  0  0  0
    2.2356   -5.1661    2.4952 H   0  0  0  0  0  0  0  0  0  0  0  0
    3.0007   -7.4990    3.1776 H   0  0  0  0  0  0  0  0  0  0  0  0
    5.2141   -8.2720    2.5234 H   0  0  0  0  0  0  0  0  0  0  0  0
    3.7922   -9.1638    1.3027 H   0  0  0  0  0  0  0  0  0  0  0  0
    5.7501   -6.6220    0.1030 H   0  0  0  0  0  0  0  0  0  0  0  0
    8.5539   -7.7490    2.8922 H   0  0  0  0  0  0  0  0  0  0  0  0
    9.0023   -5.2365    3.0725 H   0  0  0  0  0  0  0  0  0  0  0  0
    9.4448   -5.9847    1.5734 H   0  0  0  0  0  0  0  0  0  0  0  0
    7.7846   -3.8024    1.8063 H   0  0  0  0  0  0  0  0  0  0  0  0
    7.9496   -5.8450   -0.0815 H   0  0  0  0  0  0  0  0  0  0  0  0
    6.1808   -4.6539    3.8994 H   0  0  0  0  0  0  0  0  0  0  0  0
    6.5517   -7.5447    4.0960 H   0  0  0  0  0  0  0  0  0  0  0  0
    7.5221   -6.2189    4.5873 H   0  0  0  0  0  0  0  0  0  0  0  0
    4.2491   -4.2470    5.1814 H   0  0  0  0  0  0  0  0  0  0  0  0
    2.7014   -4.9749    4.7782 H   0  0  0  0  0  0  0  0  0  0  0  0
    3.5164   -3.9493    3.6220 H   0  0  0  0  0  0  0  0  0  0  0  0
    5.1538   -6.5184    5.8523 H   0  0  0  0  0  0  0  0  0  0  0  0
    4.6836   -7.9191    4.8691 H   0  0  0  0  0  0  0  0  0  0  0  0
    3.4648   -6.9260    5.5731 H   0  0  0  0  0  0  0  0  0  0  0  0
    4.2853   -2.1034    2.0764 H   0  0  0  0  0  0  0  0  0  0  0  0
    5.3462   -2.9508    3.1358 H   0  0  0  0  0  0  0  0  0  0  0  0
    6.1938   -0.9183   -0.0140 H   0  0  0  0  0  0  0  0  0  0  0  0
    8.1261   -2.8834    0.2683 H   0  0  0  0  0  0  0  0  0  0  0  0
    6.3204   -3.7161   -0.7888 H   0  0  0  0  0  0  0  0  0  0  0  0
  1  2  1  0
  1 29  1  0
  1 30  1  0
  1 31  1  0
  2 28  1  0
  2  3  1  0
  2  4  1  0
  3 32  1  0
  3 33  1  0
  3 34  1  0
  4  5  1  0
  4 35  1  0
  4 36  1  0
  5 23  1  0
  5  6  1  0
  5 37  1  1
  6  7  2  3
  6 38  1  0
  7  8  1  0
  7 39  1  0
  8 20  1  0
  8  9  1  0
  8 40  1  1
  9 10  1  0
  9 11  1  0
  9 41  1  1
 10 42  1  0
 11 17  1  0
 11 12  1  0
 11 43  1  6
 12 13  1  0
 13 19  1  0
 13 14  1  0
 13 44  1  1
 14 15  1  0
 14 45  1  0
 14 46  1  0
 15 16  1  0
 15 17  1  0
 15 47  1  1
 16 48  1  0
 17 18  1  0
 17 23  1  6
 18 19  1  0
 18 20  1  0
 18 49  1  1
 19 50  1  0
 19 51  1  0
 20 21  1  0
 20 22  1  0
 21 52  1  0
 21 53  1  0
 21 54  1  0
 22 55  1  0
 22 56  1  0
 22 57  1  0
 23 28  1  0
 23 24  1  1
 24 25  1  0
 24 58  1  0
 24 59  1  0
 25 26  1  0
 26 27  1  0
 26 28  1  0
 26 60  1  6
 27 61  1  0
 28 62  1  6
M  END
>  <i_m_ct_stereo_status>  (272) 
1

>  <s_m_source_file>  (272) 
/var/tmp/pbs.5076255.sched01/tmpavn81tjv/78c0r2i372.sdf

>  <i_m_source_file_index>  (272) 
28

>  <i_lp_mmshare_version>  (272) 
48012

>  <i_f3d_flags>  (272) 
2

>  <s_epik_input>  (272) 
W0NIMl0xT1tDQEBIXShbT0hdKVtDQEhdMkMoW0NIM10pKFtDSDNdKVtDSDJdW0NASF0oW0NAQF0xMltDQF0zNDUpL1tDSF09W0NIXVxbQ0BASF02W0NAQEhdKFtPSF0pW0NASF0zT1tDQEhdKFtDSDJdW0NASF00W09IXSlbQ0gyXVtDQEhdNUM2KFtDSDNdKVtDSDNd

>  <s_epik_cmdline>  (272) 
J2VwaWtfcHl0aG9uJywgJy1waHQnLCAnMi4wJywgJy1waCcsICc3LjAnLCAnLXRuJywgJzgnLCAnLW1hJywgJzIwMCcsICctaW1hZScsICc8aW5maWxlLm1hZT4nLCAnLW9tYWUnLCAnPG91dGZpbGUubWFlPic=

>  <r_lp_tautomer_probability>  (272) 
1

>  <r_epik_Ionization_Penalty>  (272) 
1.98035e-07

>  <r_epik_Ionization_Penalty_Charging>  (272) 
0

>  <r_epik_Ionization_Penalty_Neutral>  (272) 
1.98035e-07

>  <r_epik_State_Penalty>  (272) 
-0

>  <r_epik_Charging_Adjusted_Penalty>  (272) 
0

>  <i_epik_Tot_Q>  (272) 
0

>  <i_epik_Tot_abs_Q>  (272) 
0

>  <s_epik_Chemistry_Notes>  (272) 
This compound contains an acetal/aminal-like group ( X-CH(R)-Y where X, Y are N, S, or O) that may be acid/base labile, releasing an aldehyde.

>  <s_lp_Force_Field>  (272) 
OPLS3e

>  <r_lp_Energy>  (272) 
141.836

>  <b_lp_Chiralities_Consistent>  (272) 
0

>  <s_lp_Variant>  (272) 
77:0-2

>  <s_i_glide_gridfile>  (272) 
pfpi4k_grid

>  <i_i_glide_lignum>  (272) 
28

>  <i_i_glide_rotatable_bonds>  (272) 
3

>  <r_i_docking_score>  (272) 
-3.13457

>  <r_i_glide_ligand_efficiency>  (272) 
-0.111949

>  <r_i_glide_ligand_efficiency_sa>  (272) 
-0.339943

>  <r_i_glide_ligand_efficiency_ln>  (272) 
-0.723551

>  <r_i_glide_gscore>  (272) 
-3.13457

>  <r_i_glide_lipo>  (272) 
-0.601862

>  <r_i_glide_hbond>  (272) 
0

>  <r_i_glide_metal>  (272) 
-0

>  <r_i_glide_rewards>  (272) 
-0.810398

>  <r_i_glide_evdw>  (272) 
-24.8956

>  <r_i_glide_ecoul>  (272) 
-3.18353

>  <r_i_glide_erotb>  (272) 
0

>  <r_i_glide_esite>  (272) 
0

>  <r_i_glide_emodel>  (272) 
-32.8898

>  <r_i_glide_energy>  (272) 
-28.0791

>  <r_i_glide_einternal>  (272) 
0.635989

>  <r_i_glide_intrahb_reward>  (272) 
-0

>  <i_i_glide_confnum>  (272) 
2

>  <i_i_glide_posenum>  (272) 
35

>  <r_i_glide_eff_state_penalty>  (272) 
0

>  <ligand_id>  (272) 
77

>  <original_smiles>  (272) 
CC1(C)CC2C=CC3C(O)C4OC5CC(O)C4(C(C5)C3(C)C)C23COC(O)C13

>  <smiles>  (272) 
[H]OC1([H])OC([H])([H])C23C([H])(C([H])=C([H])C4([H])C([H])(O[H])C5([H])OC6([H])C([H])([H])C([H])(O[H])C52C([H])(C6([H])[H])C4(C([H])([H])[H])C([H])([H])[H])C([H])([H])C(C([H])([H])[H])(C([H])([H])[H])C13[H]

$$$$
77:1:2
     RDKit          3D

 62 67  0  0  1  0  0  0  0  0999 V2000
    4.9797   -2.5795   -2.5216 C   0  0  0  0  0  0  0  0  0  0  0  0
    4.4959   -2.5176   -1.0553 C   0  0  0  0  0  0  0  0  0  0  0  0
    3.9104   -1.1046   -0.8019 C   0  0  0  0  0  0  0  0  0  0  0  0
    3.4101   -3.5326   -0.8203 C   0  0  0  0  0  0  0  0  0  0  0  0
    3.4234   -3.8220    0.6803 C   0  0  1  0  0  0  0  0  0  0  0  0
    2.7614   -5.1341    0.8963 C   0  0  0  0  0  0  0  0  0  0  0  0
    2.3491   -5.3937    2.1281 C   0  0  0  0  0  0  0  0  0  0  0  0
    3.1497   -6.3356    2.9988 C   0  0  1  0  0  0  0  0  0  0  0  0
    4.1188   -7.2676    2.1989 C   0  0  1  0  0  0  0  0  0  0  0  0
    3.4049   -8.0897    1.3011 O   0  0  0  0  0  0  0  0  0  0  0  0
    5.3396   -6.5508    1.4801 C   0  0  2  0  0  0  0  0  0  0  0  0
    6.4448   -7.4194    1.8181 O   0  0  0  0  0  0  0  0  0  0  0  0
    7.2586   -6.9979    2.9233 C   0  0  1  0  0  0  0  0  0  0  0  0
    8.1393   -5.8694    2.4570 C   0  0  0  0  0  0  0  0  0  0  0  0
    7.2408   -4.8829    1.6987 C   0  0  1  0  0  0  0  0  0  0  0  0
    7.6971   -5.0757    0.3824 O   0  0  0  0  0  0  0  0  0  0  0  0
    5.6719   -5.0673    1.9458 C   0  0  2  0  0  0  0  0  0  0  0  0
    5.4599   -5.2877    3.5417 C   0  0  2  0  0  0  0  0  0  0  0  0
    6.3999   -6.4419    4.0500 C   0  0  0  0  0  0  0  0  0  0  0  0
    3.9771   -5.5386    4.0753 C   0  0  0  0  0  0  0  0  0  0  0  0
    3.3704   -4.1820    4.5324 C   0  0  0  0  0  0  0  0  0  0  0  0
    3.8897   -6.3629    5.3960 C   0  0  0  0  0  0  0  0  0  0  0  0
    4.9250   -3.7315    1.2260 C   0  0  2  0  0  0  0  0  0  0  0  0
    5.1104   -2.4867    2.1454 C   0  0  0  0  0  0  0  0  0  0  0  0
    6.2832   -1.7925    1.7556 O   0  0  0  0  0  0  0  0  0  0  0  0
    6.4933   -1.9274    0.4025 C   0  0  1  0  0  0  0  0  0  0  0  0
    7.8327   -2.1917    0.0822 O   0  0  0  0  0  0  0  0  0  0  0  0
    5.5672   -3.0733   -0.0675 C   0  0  2  0  0  0  0  0  0  0  0  0
    4.1825   -2.3036   -3.2118 H   0  0  0  0  0  0  0  0  0  0  0  0
    5.3281   -3.5717   -2.8078 H   0  0  0  0  0  0  0  0  0  0  0  0
    5.8041   -1.8880   -2.6744 H   0  0  0  0  0  0  0  0  0  0  0  0
    3.6187   -0.9317    0.2315 H   0  0  0  0  0  0  0  0  0  0  0  0
    3.0168   -0.9697   -1.4080 H   0  0  0  0  0  0  0  0  0  0  0  0
    4.5897   -0.3063   -1.1015 H   0  0  0  0  0  0  0  0  0  0  0  0
    2.4315   -3.2190   -1.1866 H   0  0  0  0  0  0  0  0  0  0  0  0
    3.6902   -4.4342   -1.3595 H   0  0  0  0  0  0  0  0  0  0  0  0
    2.7980   -3.0639    1.1574 H   0  0  0  0  0  0  0  0  0  0  0  0
    3.2349   -5.8849    0.2906 H   0  0  0  0  0  0  0  0  0  0  0  0
    1.8911   -4.5838    2.6671 H   0  0  0  0  0  0  0  0  0  0  0  0
    2.3891   -6.9403    3.5007 H   0  0  0  0  0  0  0  0  0  0  0  0
    4.4965   -7.9857    2.9281 H   0  0  0  0  0  0  0  0  0  0  0  0
    3.9282   -8.8591    1.1124 H   0  0  0  0  0  0  0  0  0  0  0  0
    5.2447   -6.5891    0.3965 H   0  0  0  0  0  0  0  0  0  0  0  0
    7.8765   -7.8199    3.2874 H   0  0  0  0  0  0  0  0  0  0  0  0
    8.6169   -5.3906    3.3113 H   0  0  0  0  0  0  0  0  0  0  0  0
    8.9605   -6.2575    1.8524 H   0  0  0  0  0  0  0  0  0  0  0  0
    7.5308   -3.8838    2.0038 H   0  0  0  0  0  0  0  0  0  0  0  0
    7.1062   -4.6378   -0.2196 H   0  0  0  0  0  0  0  0  0  0  0  0
    5.8555   -4.4249    4.0741 H   0  0  0  0  0  0  0  0  0  0  0  0
    5.9086   -7.3176    4.4588 H   0  0  0  0  0  0  0  0  0  0  0  0
    7.0192   -6.0774    4.8697 H   0  0  0  0  0  0  0  0  0  0  0  0
    3.9843   -3.7323    5.3179 H   0  0  0  0  0  0  0  0  0  0  0  0
    2.3652   -4.3076    4.9428 H   0  0  0  0  0  0  0  0  0  0  0  0
    3.2921   -3.4469    3.7366 H   0  0  0  0  0  0  0  0  0  0  0  0
    4.6299   -6.0355    6.1310 H   0  0  0  0  0  0  0  0  0  0  0  0
    4.0083   -7.4364    5.2365 H   0  0  0  0  0  0  0  0  0  0  0  0
    2.9067   -6.2709    5.8637 H   0  0  0  0  0  0  0  0  0  0  0  0
    4.2682   -1.7987    2.0776 H   0  0  0  0  0  0  0  0  0  0  0  0
    5.2168   -2.6889    3.2037 H   0  0  0  0  0  0  0  0  0  0  0  0
    6.2857   -0.9655   -0.0518 H   0  0  0  0  0  0  0  0  0  0  0  0
    8.0680   -3.0243    0.4742 H   0  0  0  0  0  0  0  0  0  0  0  0
    6.0971   -3.8020   -0.6723 H   0  0  0  0  0  0  0  0  0  0  0  0
  1  2  1  0
  1 29  1  0
  1 30  1  0
  1 31  1  0
  2 28  1  0
  2  3  1  0
  2  4  1  0
  3 32  1  0
  3 33  1  0
  3 34  1  0
  4  5  1  0
  4 35  1  0
  4 36  1  0
  5 23  1  0
  5  6  1  0
  5 37  1  1
  6  7  2  3
  6 38  1  0
  7  8  1  0
  7 39  1  0
  8 20  1  0
  8  9  1  0
  8 40  1  1
  9 10  1  0
  9 11  1  0
  9 41  1  1
 10 42  1  0
 11 17  1  0
 11 12  1  0
 11 43  1  6
 12 13  1  0
 13 19  1  0
 13 14  1  0
 13 44  1  1
 14 15  1  0
 14 45  1  0
 14 46  1  0
 15 16  1  0
 15 17  1  0
 15 47  1  1
 16 48  1  0
 17 18  1  0
 17 23  1  6
 18 19  1  0
 18 20  1  0
 18 49  1  1
 19 50  1  0
 19 51  1  0
 20 21  1  0
 20 22  1  0
 21 52  1  0
 21 53  1  0
 21 54  1  0
 22 55  1  0
 22 56  1  0
 22 57  1  0
 23 28  1  0
 23 24  1  1
 24 25  1  0
 24 58  1  0
 24 59  1  0
 25 26  1  0
 26 27  1  0
 26 28  1  0
 26 60  1  6
 27 61  1  0
 28 62  1  6
M  END
>  <i_m_ct_stereo_status>  (273) 
1

>  <s_m_source_file>  (273) 
/var/tmp/pbs.5076255.sched01/tmpavn81tjv/78c0r2i372.sdf

>  <i_m_source_file_index>  (273) 
28

>  <i_lp_mmshare_version>  (273) 
48012

>  <i_f3d_flags>  (273) 
2

>  <s_epik_input>  (273) 
W0NIMl0xT1tDQEBIXShbT0hdKVtDQEhdMkMoW0NIM10pKFtDSDNdKVtDSDJdW0NASF0oW0NAQF0xMltDQF0zNDUpL1tDSF09W0NIXVxbQ0BASF02W0NAQEhdKFtPSF0pW0NASF0zT1tDQEhdKFtDSDJdW0NASF00W09IXSlbQ0gyXVtDQEhdNUM2KFtDSDNdKVtDSDNd

>  <s_epik_cmdline>  (273) 
J2VwaWtfcHl0aG9uJywgJy1waHQnLCAnMi4wJywgJy1waCcsICc3LjAnLCAnLXRuJywgJzgnLCAnLW1hJywgJzIwMCcsICctaW1hZScsICc8aW5maWxlLm1hZT4nLCAnLW9tYWUnLCAnPG91dGZpbGUubWFlPic=

>  <r_lp_tautomer_probability>  (273) 
1

>  <r_epik_Ionization_Penalty>  (273) 
1.98035e-07

>  <r_epik_Ionization_Penalty_Charging>  (273) 
0

>  <r_epik_Ionization_Penalty_Neutral>  (273) 
1.98035e-07

>  <r_epik_State_Penalty>  (273) 
-0

>  <r_epik_Charging_Adjusted_Penalty>  (273) 
0

>  <i_epik_Tot_Q>  (273) 
0

>  <i_epik_Tot_abs_Q>  (273) 
0

>  <s_epik_Chemistry_Notes>  (273) 
This compound contains an acetal/aminal-like group ( X-CH(R)-Y where X, Y are N, S, or O) that may be acid/base labile, releasing an aldehyde.

>  <s_lp_Force_Field>  (273) 
OPLS3e

>  <r_lp_Energy>  (273) 
141.836

>  <b_lp_Chiralities_Consistent>  (273) 
0

>  <s_lp_Variant>  (273) 
77:0-2

>  <s_i_glide_gridfile>  (273) 
pfpi4k_grid

>  <i_i_glide_lignum>  (273) 
28

>  <i_i_glide_rotatable_bonds>  (273) 
3

>  <r_i_docking_score>  (273) 
-2.92844

>  <r_i_glide_ligand_efficiency>  (273) 
-0.104587

>  <r_i_glide_ligand_efficiency_sa>  (273) 
-0.317588

>  <r_i_glide_ligand_efficiency_ln>  (273) 
-0.67597

>  <r_i_glide_gscore>  (273) 
-2.92844

>  <r_i_glide_lipo>  (273) 
-0.534174

>  <r_i_glide_hbond>  (273) 
0

>  <r_i_glide_metal>  (273) 
-0

>  <r_i_glide_rewards>  (273) 
-0.817527

>  <r_i_glide_evdw>  (273) 
-24.9285

>  <r_i_glide_ecoul>  (273) 
-2.20208

>  <r_i_glide_erotb>  (273) 
0

>  <r_i_glide_esite>  (273) 
0

>  <r_i_glide_emodel>  (273) 
-31.561

>  <r_i_glide_energy>  (273) 
-27.1306

>  <r_i_glide_einternal>  (273) 
0.836346

>  <r_i_glide_intrahb_reward>  (273) 
-0

>  <i_i_glide_confnum>  (273) 
1

>  <i_i_glide_posenum>  (273) 
16

>  <r_i_glide_eff_state_penalty>  (273) 
0

>  <ligand_id>  (273) 
77

>  <original_smiles>  (273) 
CC1(C)CC2C=CC3C(O)C4OC5CC(O)C4(C(C5)C3(C)C)C23COC(O)C13

>  <smiles>  (273) 
[H]OC1([H])OC([H])([H])C23C([H])(C([H])=C([H])C4([H])C([H])(O[H])C5([H])OC6([H])C([H])([H])C([H])(O[H])C52C([H])(C6([H])[H])C4(C([H])([H])[H])C([H])([H])[H])C([H])([H])C(C([H])([H])[H])(C([H])([H])[H])C13[H]

$$$$
78:0:0
     RDKit          3D

 17 18  0  0  1  0  0  0  0  0999 V2000
    7.1030   -1.4561    0.7083 C   0  0  0  0  0  0  0  0  0  0  0  0
    6.2297   -1.4560   -0.4129 O   0  0  0  0  0  0  0  0  0  0  0  0
    5.1002   -2.2454   -0.3660 C   0  0  0  0  0  0  0  0  0  0  0  0
    4.8410   -2.9903    0.7266 N   0  0  0  0  0  0  0  0  0  0  0  0
    3.7281   -3.7244    0.6993 C   0  0  0  0  0  0  0  0  0  0  0  0
    2.8187   -3.8464   -0.2703 N   0  0  0  0  0  0  0  0  0  0  0  0
    3.0694   -3.1171   -1.3705 C   0  0  0  0  0  0  0  0  0  0  0  0
    2.2983   -3.0587   -2.5889 C   0  0  0  0  0  0  0  0  0  0  0  0
    2.8513   -2.2126   -3.5155 C   0  0  0  0  0  0  0  0  0  0  0  0
    4.3019   -1.4321   -2.9856 S   0  0  0  0  0  0  0  0  0  0  0  0
    4.2268   -2.2859   -1.4573 C   0  0  0  0  0  0  0  0  0  0  0  0
    7.9288   -0.7817    0.4915 H   0  0  0  0  0  0  0  0  0  0  0  0
    7.5271   -2.4437    0.8817 H   0  0  0  0  0  0  0  0  0  0  0  0
    6.6133   -1.0985    1.6145 H   0  0  0  0  0  0  0  0  0  0  0  0
    3.5405   -4.3116    1.5876 H   0  0  0  0  0  0  0  0  0  0  0  0
    1.4004   -3.6369   -2.7268 H   0  0  0  0  0  0  0  0  0  0  0  0
    2.4659   -1.9683   -4.4946 H   0  0  0  0  0  0  0  0  0  0  0  0
  1  2  1  0
  1 12  1  0
  1 13  1  0
  1 14  1  0
  2  3  1  0
  3 11  2  0
  3  4  1  0
  4  5  2  0
  5  6  1  0
  5 15  1  0
  6  7  2  0
  7 11  1  0
  7  8  1  0
  8  9  2  0
  8 16  1  0
  9 10  1  0
  9 17  1  0
 10 11  1  0
M  END
>  <i_m_ct_stereo_status>  (274) 
1

>  <s_m_source_file>  (274) 
/var/tmp/pbs.5076255.sched01/tmpavn81tjv/78c0r2i372.sdf

>  <i_m_source_file_index>  (274) 
29

>  <i_lp_mmshare_version>  (274) 
48012

>  <i_f3d_flags>  (274) 
0

>  <s_epik_input>  (274) 
bjFbY0hdbmMoT1tDSDNdKWMoYzEyKXNbY0hdW2NIXTI=

>  <s_epik_cmdline>  (274) 
J2VwaWtfcHl0aG9uJywgJy1waHQnLCAnMi4wJywgJy1waCcsICc3LjAnLCAnLXRuJywgJzgnLCAnLW1hJywgJzIwMCcsICctaW1hZScsICc8aW5maWxlLm1hZT4nLCAnLW9tYWUnLCAnPG91dGZpbGUubWFlPic=

>  <r_lp_tautomer_probability>  (274) 
1

>  <r_epik_Ionization_Penalty>  (274) 
1.63503e-05

>  <r_epik_Ionization_Penalty_Charging>  (274) 
0

>  <r_epik_Ionization_Penalty_Neutral>  (274) 
1.63503e-05

>  <r_epik_State_Penalty>  (274) 
-0

>  <r_epik_Charging_Adjusted_Penalty>  (274) 
0

>  <i_epik_Tot_Q>  (274) 
0

>  <i_epik_Tot_abs_Q>  (274) 
0

>  <s_lp_Force_Field>  (274) 
OPLS3e

>  <r_lp_Energy>  (274) 
4.52893

>  <b_lp_Chiralities_Consistent>  (274) 
1

>  <s_lp_Variant>  (274) 
78:0-1

>  <s_i_glide_gridfile>  (274) 
pfpi4k_grid

>  <i_i_glide_lignum>  (274) 
29

>  <i_i_glide_rotatable_bonds>  (274) 
1

>  <r_i_docking_score>  (274) 
-3.96026

>  <r_i_glide_ligand_efficiency>  (274) 
-0.360024

>  <r_i_glide_ligand_efficiency_sa>  (274) 
-0.800685

>  <r_i_glide_ligand_efficiency_ln>  (274) 
-1.1655

>  <r_i_glide_gscore>  (274) 
-3.96026

>  <r_i_glide_lipo>  (274) 
-0.336376

>  <r_i_glide_hbond>  (274) 
-0.0750227

>  <r_i_glide_metal>  (274) 
-0

>  <r_i_glide_rewards>  (274) 
-2.25312

>  <r_i_glide_evdw>  (274) 
-17.9929

>  <r_i_glide_ecoul>  (274) 
-2.64067

>  <r_i_glide_erotb>  (274) 
0

>  <r_i_glide_esite>  (274) 
0

>  <r_i_glide_emodel>  (274) 
-26.4183

>  <r_i_glide_energy>  (274) 
-20.6336

>  <r_i_glide_einternal>  (274) 
0.00439052

>  <r_i_glide_intrahb_reward>  (274) 
-0

>  <i_i_glide_confnum>  (274) 
1

>  <i_i_glide_posenum>  (274) 
3

>  <r_i_glide_eff_state_penalty>  (274) 
0

>  <ligand_id>  (274) 
78

>  <original_smiles>  (274) 
COc1ncnc2ccsc12

>  <smiles>  (274) 
[H]c1nc(OC([H])([H])[H])c2sc([H])c([H])c2n1

$$$$
78:0:1
     RDKit          3D

 17 18  0  0  1  0  0  0  0  0999 V2000
    4.6564   -9.2649    1.5619 C   0  0  0  0  0  0  0  0  0  0  0  0
    3.3660   -9.3634    2.1489 O   0  0  0  0  0  0  0  0  0  0  0  0
    2.4611   -8.3502    1.9272 C   0  0  0  0  0  0  0  0  0  0  0  0
    2.8393   -7.2134    1.3034 N   0  0  0  0  0  0  0  0  0  0  0  0
    1.8997   -6.2870    1.1121 C   0  0  0  0  0  0  0  0  0  0  0  0
    0.6020   -6.3135    1.4464 N   0  0  0  0  0  0  0  0  0  0  0  0
    0.2128   -7.4337    2.0798 C   0  0  0  0  0  0  0  0  0  0  0  0
   -1.1098   -7.7402    2.5838 C   0  0  0  0  0  0  0  0  0  0  0  0
   -1.1432   -8.9736    3.1854 C   0  0  0  0  0  0  0  0  0  0  0  0
    0.3662   -9.8303    3.1744 S   0  0  0  0  0  0  0  0  0  0  0  0
    1.1352   -8.4894    2.3496 C   0  0  0  0  0  0  0  0  0  0  0  0
    5.2308  -10.1467    1.8439 H   0  0  0  0  0  0  0  0  0  0  0  0
    5.2047   -8.3874    1.9077 H   0  0  0  0  0  0  0  0  0  0  0  0
    4.5953   -9.2498    0.4742 H   0  0  0  0  0  0  0  0  0  0  0  0
    2.2258   -5.3924    0.6025 H   0  0  0  0  0  0  0  0  0  0  0  0
   -1.9694   -7.0913    2.5025 H   0  0  0  0  0  0  0  0  0  0  0  0
   -1.9895   -9.4551    3.6558 H   0  0  0  0  0  0  0  0  0  0  0  0
  1  2  1  0
  1 12  1  0
  1 13  1  0
  1 14  1  0
  2  3  1  0
  3 11  2  0
  3  4  1  0
  4  5  2  0
  5  6  1  0
  5 15  1  0
  6  7  2  0
  7 11  1  0
  7  8  1  0
  8  9  2  0
  8 16  1  0
  9 10  1  0
  9 17  1  0
 10 11  1  0
M  END
>  <i_m_ct_stereo_status>  (275) 
1

>  <s_m_source_file>  (275) 
/var/tmp/pbs.5076255.sched01/tmpavn81tjv/78c0r2i372.sdf

>  <i_m_source_file_index>  (275) 
29

>  <i_lp_mmshare_version>  (275) 
48012

>  <i_f3d_flags>  (275) 
0

>  <s_epik_input>  (275) 
bjFbY0hdbmMoT1tDSDNdKWMoYzEyKXNbY0hdW2NIXTI=

>  <s_epik_cmdline>  (275) 
J2VwaWtfcHl0aG9uJywgJy1waHQnLCAnMi4wJywgJy1waCcsICc3LjAnLCAnLXRuJywgJzgnLCAnLW1hJywgJzIwMCcsICctaW1hZScsICc8aW5maWxlLm1hZT4nLCAnLW9tYWUnLCAnPG91dGZpbGUubWFlPic=

>  <r_lp_tautomer_probability>  (275) 
1

>  <r_epik_Ionization_Penalty>  (275) 
1.63503e-05

>  <r_epik_Ionization_Penalty_Charging>  (275) 
0

>  <r_epik_Ionization_Penalty_Neutral>  (275) 
1.63503e-05

>  <r_epik_State_Penalty>  (275) 
-0

>  <r_epik_Charging_Adjusted_Penalty>  (275) 
0

>  <i_epik_Tot_Q>  (275) 
0

>  <i_epik_Tot_abs_Q>  (275) 
0

>  <s_lp_Force_Field>  (275) 
OPLS3e

>  <r_lp_Energy>  (275) 
4.52893

>  <b_lp_Chiralities_Consistent>  (275) 
1

>  <s_lp_Variant>  (275) 
78:0-1

>  <s_i_glide_gridfile>  (275) 
pfpi4k_grid

>  <i_i_glide_lignum>  (275) 
29

>  <i_i_glide_rotatable_bonds>  (275) 
1

>  <r_i_docking_score>  (275) 
-3.79491

>  <r_i_glide_ligand_efficiency>  (275) 
-0.344992

>  <r_i_glide_ligand_efficiency_sa>  (275) 
-0.767255

>  <r_i_glide_ligand_efficiency_ln>  (275) 
-1.11684

>  <r_i_glide_gscore>  (275) 
-3.79491

>  <r_i_glide_lipo>  (275) 
0

>  <r_i_glide_hbond>  (275) 
-0.16

>  <r_i_glide_metal>  (275) 
-0

>  <r_i_glide_rewards>  (275) 
-2.25

>  <r_i_glide_evdw>  (275) 
-17.0547

>  <r_i_glide_ecoul>  (275) 
-3.27491

>  <r_i_glide_erotb>  (275) 
0

>  <r_i_glide_esite>  (275) 
-0.040941

>  <r_i_glide_emodel>  (275) 
-25.7621

>  <r_i_glide_energy>  (275) 
-20.3296

>  <r_i_glide_einternal>  (275) 
0.152305

>  <r_i_glide_intrahb_reward>  (275) 
-0

>  <i_i_glide_confnum>  (275) 
1

>  <i_i_glide_posenum>  (275) 
13

>  <r_i_glide_eff_state_penalty>  (275) 
0

>  <ligand_id>  (275) 
78

>  <original_smiles>  (275) 
COc1ncnc2ccsc12

>  <smiles>  (275) 
[H]c1nc(OC([H])([H])[H])c2sc([H])c([H])c2n1

$$$$
78:0:2
     RDKit          3D

 17 18  0  0  1  0  0  0  0  0999 V2000
    2.6564   -5.0584    0.5523 C   0  0  0  0  0  0  0  0  0  0  0  0
    1.6090   -5.8553    1.0995 O   0  0  0  0  0  0  0  0  0  0  0  0
    1.9288   -7.1003    1.5955 C   0  0  0  0  0  0  0  0  0  0  0  0
    3.1841   -7.5792    1.4781 N   0  0  0  0  0  0  0  0  0  0  0  0
    3.3991   -8.8103    1.9494 C   0  0  0  0  0  0  0  0  0  0  0  0
    2.5440   -9.6405    2.5517 N   0  0  0  0  0  0  0  0  0  0  0  0
    1.2931   -9.1790    2.6762 C   0  0  0  0  0  0  0  0  0  0  0  0
    0.1631   -9.8412    3.2817 C   0  0  0  0  0  0  0  0  0  0  0  0
   -0.9674   -9.0613    3.2415 C   0  0  0  0  0  0  0  0  0  0  0  0
   -0.7530   -7.5172    2.4810 S   0  0  0  0  0  0  0  0  0  0  0  0
    0.9382   -7.8786    2.2010 C   0  0  0  0  0  0  0  0  0  0  0  0
    2.2337   -4.1074    0.2260 H   0  0  0  0  0  0  0  0  0  0  0  0
    3.1166   -5.5327   -0.3122 H   0  0  0  0  0  0  0  0  0  0  0  0
    3.4284   -4.8392    1.2932 H   0  0  0  0  0  0  0  0  0  0  0  0
    4.4066   -9.1857    1.8440 H   0  0  0  0  0  0  0  0  0  0  0  0
    0.2047  -10.8265    3.7285 H   0  0  0  0  0  0  0  0  0  0  0  0
   -1.9373   -9.3293    3.6371 H   0  0  0  0  0  0  0  0  0  0  0  0
  1  2  1  0
  1 12  1  0
  1 13  1  0
  1 14  1  0
  2  3  1  0
  3 11  2  0
  3  4  1  0
  4  5  2  0
  5  6  1  0
  5 15  1  0
  6  7  2  0
  7 11  1  0
  7  8  1  0
  8  9  2  0
  8 16  1  0
  9 10  1  0
  9 17  1  0
 10 11  1  0
M  END
>  <i_m_ct_stereo_status>  (276) 
1

>  <s_m_source_file>  (276) 
/var/tmp/pbs.5076255.sched01/tmpavn81tjv/78c0r2i372.sdf

>  <i_m_source_file_index>  (276) 
29

>  <i_lp_mmshare_version>  (276) 
48012

>  <i_f3d_flags>  (276) 
0

>  <s_epik_input>  (276) 
bjFbY0hdbmMoT1tDSDNdKWMoYzEyKXNbY0hdW2NIXTI=

>  <s_epik_cmdline>  (276) 
J2VwaWtfcHl0aG9uJywgJy1waHQnLCAnMi4wJywgJy1waCcsICc3LjAnLCAnLXRuJywgJzgnLCAnLW1hJywgJzIwMCcsICctaW1hZScsICc8aW5maWxlLm1hZT4nLCAnLW9tYWUnLCAnPG91dGZpbGUubWFlPic=

>  <r_lp_tautomer_probability>  (276) 
1

>  <r_epik_Ionization_Penalty>  (276) 
1.63503e-05

>  <r_epik_Ionization_Penalty_Charging>  (276) 
0

>  <r_epik_Ionization_Penalty_Neutral>  (276) 
1.63503e-05

>  <r_epik_State_Penalty>  (276) 
-0

>  <r_epik_Charging_Adjusted_Penalty>  (276) 
0

>  <i_epik_Tot_Q>  (276) 
0

>  <i_epik_Tot_abs_Q>  (276) 
0

>  <s_lp_Force_Field>  (276) 
OPLS3e

>  <r_lp_Energy>  (276) 
4.52893

>  <b_lp_Chiralities_Consistent>  (276) 
1

>  <s_lp_Variant>  (276) 
78:0-1

>  <s_i_glide_gridfile>  (276) 
pfpi4k_grid

>  <i_i_glide_lignum>  (276) 
29

>  <i_i_glide_rotatable_bonds>  (276) 
1

>  <r_i_docking_score>  (276) 
-3.53842

>  <r_i_glide_ligand_efficiency>  (276) 
-0.321674

>  <r_i_glide_ligand_efficiency_sa>  (276) 
-0.715397

>  <r_i_glide_ligand_efficiency_ln>  (276) 
-1.04136

>  <r_i_glide_gscore>  (276) 
-3.53842

>  <r_i_glide_lipo>  (276) 
-0.0273918

>  <r_i_glide_hbond>  (276) 
-0.115609

>  <r_i_glide_metal>  (276) 
-0

>  <r_i_glide_rewards>  (276) 
-2.25

>  <r_i_glide_evdw>  (276) 
-17.1687

>  <r_i_glide_ecoul>  (276) 
-1.73705

>  <r_i_glide_erotb>  (276) 
0

>  <r_i_glide_esite>  (276) 
-0.0264224

>  <r_i_glide_emodel>  (276) 
-24.0561

>  <r_i_glide_energy>  (276) 
-18.9057

>  <r_i_glide_einternal>  (276) 
0.0262878

>  <r_i_glide_intrahb_reward>  (276) 
-0

>  <i_i_glide_confnum>  (276) 
1

>  <i_i_glide_posenum>  (276) 
23

>  <r_i_glide_eff_state_penalty>  (276) 
0

>  <ligand_id>  (276) 
78

>  <original_smiles>  (276) 
COc1ncnc2ccsc12

>  <smiles>  (276) 
[H]c1nc(OC([H])([H])[H])c2sc([H])c([H])c2n1

$$$$
79:0:0
     RDKit          3D

 74 79  0  0  1  0  0  0  0  0999 V2000
    2.9641   -0.0620    1.4221 C   0  0  0  0  0  0  0  0  0  0  0  0
    3.8310   -0.7959    2.2686 O   0  0  0  0  0  0  0  0  0  0  0  0
    4.6210   -1.8784    1.9168 C   0  0  0  0  0  0  0  0  0  0  0  0
    5.3994   -2.4430    2.7113 O   0  0  0  0  0  0  0  0  0  0  0  0
    4.4498   -2.4180    0.4650 C   0  0  1  0  0  0  0  0  0  0  0  0
    4.7372   -1.3013   -0.5605 C   0  0  0  0  0  0  0  0  0  0  0  0
    5.1901   -1.9288   -1.8265 C   0  0  1  0  0  0  0  0  0  0  0  0
    5.9987   -3.1373   -1.3643 C   0  0  0  0  0  0  0  0  0  0  0  0
    5.5328   -3.4706    0.0843 C   0  0  2  0  0  0  0  0  0  0  0  0
    5.1010   -4.9658    0.2409 C   0  0  1  0  0  0  0  0  0  0  0  0
    6.0919   -5.8457    0.9993 C   0  0  0  0  0  0  0  0  0  0  0  0
    7.3140   -5.7776    0.8899 O   0  0  0  0  0  0  0  0  0  0  0  0
    5.3395   -6.8373    1.8880 C   0  0  1  0  0  0  0  0  0  0  0  0
    4.9324   -8.0356    0.9849 C   0  0  0  0  0  0  0  0  0  0  0  0
    6.0353   -7.3029    3.1786 C   0  0  0  0  0  0  0  0  0  0  0  0
    5.0789   -8.1814    4.0188 C   0  0  1  0  0  0  0  0  0  0  0  0
    5.7840   -8.6655    5.3078 C   0  0  0  0  0  0  0  0  0  0  0  0
    5.0444   -9.6935    5.9549 O   0  0  0  0  0  0  0  0  0  0  0  0
    5.1458  -10.9691    5.5361 C   0  0  0  0  0  0  0  0  0  0  0  0
    4.2159  -11.9037    6.2955 C   0  0  0  0  0  0  0  0  0  0  0  0
    5.8825  -11.3856    4.6426 O   0  0  0  0  0  0  0  0  0  0  0  0
    3.6766   -7.5349    4.2773 C   0  0  2  0  0  0  0  0  0  0  0  0
    2.7260   -8.5921    4.3085 O   0  0  0  0  0  0  0  0  0  0  0  0
    1.7760   -8.3865    3.3200 C   0  0  0  0  0  0  0  0  0  0  0  0
    1.5975   -9.6820    2.5149 C   0  0  0  0  0  0  0  0  0  0  0  0
    0.4691   -7.9431    3.9964 C   0  0  0  0  0  0  0  0  0  0  0  0
    2.2157   -7.4012    2.4535 O   0  0  0  0  0  0  0  0  0  0  0  0
    3.1115   -6.5953    3.1839 C   0  0  2  0  0  0  0  0  0  0  0  0
    4.1848   -5.9300    2.3057 C   0  0  2  0  0  0  0  0  0  0  0  0
    3.7679   -5.2464    0.9963 C   0  0  1  0  0  0  0  0  0  0  0  0
    2.9733   -4.1250    1.2831 O   0  0  0  0  0  0  0  0  0  0  0  0
    3.0373   -3.0819    0.3436 C   0  0  2  0  0  0  0  0  0  0  0  0
    2.5192   -3.4847   -1.0235 C   0  0  0  0  0  0  0  0  0  0  0  0
    2.9029   -3.1460   -2.2686 C   0  0  0  0  0  0  0  0  0  0  0  0
    4.0211   -2.2443   -2.7935 C   0  0  1  0  0  0  0  0  0  0  0  0
    3.4089   -0.9849   -3.4442 C   0  0  0  0  0  0  0  0  0  0  0  0
    2.4653    0.7371    1.9037 H   0  0  0  0  0  0  0  0  0  0  0  0
    2.1941   -0.6725    0.9863 H   0  0  0  0  0  0  0  0  0  0  0  0
    3.5407    0.3988    0.6357 H   0  0  0  0  0  0  0  0  0  0  0  0
    3.8678   -0.7281   -0.8556 H   0  0  0  0  0  0  0  0  0  0  0  0
    5.4931   -0.6130   -0.1805 H   0  0  0  0  0  0  0  0  0  0  0  0
    5.8378   -1.2101   -2.3186 H   0  0  0  0  0  0  0  0  0  0  0  0
    5.8797   -3.9682   -2.0682 H   0  0  0  0  0  0  0  0  0  0  0  0
    7.0626   -2.8627   -1.3524 H   0  0  0  0  0  0  0  0  0  0  0  0
    6.4306   -3.3068    0.6937 H   0  0  0  0  0  0  0  0  0  0  0  0
    4.9670   -5.3830   -0.7517 H   0  0  0  0  0  0  0  0  0  0  0  0
    4.1035   -8.6013    1.3926 H   0  0  0  0  0  0  0  0  0  0  0  0
    5.7604   -8.7356    0.8683 H   0  0  0  0  0  0  0  0  0  0  0  0
    4.6222   -7.7419   -0.0198 H   0  0  0  0  0  0  0  0  0  0  0  0
    6.9307   -7.8758    2.9389 H   0  0  0  0  0  0  0  0  0  0  0  0
    6.3719   -6.4440    3.7650 H   0  0  0  0  0  0  0  0  0  0  0  0
    4.9080   -9.0781    3.4262 H   0  0  0  0  0  0  0  0  0  0  0  0
    6.7828   -9.0335    5.0693 H   0  0  0  0  0  0  0  0  0  0  0  0
    5.9320   -7.8406    6.0048 H   0  0  0  0  0  0  0  0  0  0  0  0
    4.3678  -11.8067    7.3709 H   0  0  0  0  0  0  0  0  0  0  0  0
    4.3891  -12.9437    6.0144 H   0  0  0  0  0  0  0  0  0  0  0  0
    3.1755  -11.6631    6.0755 H   0  0  0  0  0  0  0  0  0  0  0  0
    3.6627   -7.0276    5.2439 H   0  0  0  0  0  0  0  0  0  0  0  0
    2.5484  -10.0194    2.1114 H   0  0  0  0  0  0  0  0  0  0  0  0
    0.9104   -9.5118    1.6876 H   0  0  0  0  0  0  0  0  0  0  0  0
    1.1938  -10.4676    3.1508 H   0  0  0  0  0  0  0  0  0  0  0  0
    0.6287   -7.0410    4.5835 H   0  0  0  0  0  0  0  0  0  0  0  0
    0.1171   -8.7329    4.6629 H   0  0  0  0  0  0  0  0  0  0  0  0
   -0.2980   -7.7557    3.2457 H   0  0  0  0  0  0  0  0  0  0  0  0
    2.5252   -5.8079    3.6644 H   0  0  0  0  0  0  0  0  0  0  0  0
    4.6005   -5.1386    2.9399 H   0  0  0  0  0  0  0  0  0  0  0  0
    3.1573   -5.9172    0.3931 H   0  0  0  0  0  0  0  0  0  0  0  0
    2.2121   -2.4958    0.7209 H   0  0  0  0  0  0  0  0  0  0  0  0
    1.6619   -4.1341   -0.9605 H   0  0  0  0  0  0  0  0  0  0  0  0
    2.3104   -3.5950   -3.0607 H   0  0  0  0  0  0  0  0  0  0  0  0
    4.4677   -2.8216   -3.6078 H   0  0  0  0  0  0  0  0  0  0  0  0
    2.7538   -1.2568   -4.2690 H   0  0  0  0  0  0  0  0  0  0  0  0
    4.1806   -0.3245   -3.8341 H   0  0  0  0  0  0  0  0  0  0  0  0
    2.7988   -0.4066   -2.7466 H   0  0  0  0  0  0  0  0  0  0  0  0
  1  2  1  0
  1 37  1  0
  1 38  1  0
  1 39  1  0
  2  3  1  0
  3  4  2  0
  5  3  1  1
  5  9  1  0
  5 32  1  0
  5  6  1  0
  6  7  1  0
  6 40  1  0
  6 41  1  0
  7 35  1  0
  7  8  1  0
  7 42  1  6
  8  9  1  0
  8 43  1  0
  8 44  1  0
  9 10  1  0
  9 45  1  1
 10 30  1  0
 10 11  1  0
 10 46  1  6
 11 12  2  0
 11 13  1  0
 13 29  1  0
 13 14  1  6
 13 15  1  0
 14 47  1  0
 14 48  1  0
 14 49  1  0
 15 16  1  0
 15 50  1  0
 15 51  1  0
 16 17  1  0
 16 22  1  0
 16 52  1  6
 17 18  1  0
 17 53  1  0
 17 54  1  0
 18 19  1  0
 19 20  1  0
 19 21  2  0
 20 55  1  0
 20 56  1  0
 20 57  1  0
 22 28  1  0
 22 23  1  0
 22 58  1  1
 23 24  1  0
 24 25  1  0
 24 26  1  0
 24 27  1  0
 25 59  1  0
 25 60  1  0
 25 61  1  0
 26 62  1  0
 26 63  1  0
 26 64  1  0
 27 28  1  0
 28 29  1  0
 28 65  1  1
 29 30  1  0
 29 66  1  1
 30 31  1  0
 30 67  1  6
 31 32  1  0
 32 33  1  0
 32 68  1  1
 33 34  2  0
 33 69  1  0
 34 35  1  0
 34 70  1  0
 35 36  1  0
 35 71  1  6
 36 72  1  0
 36 73  1  0
 36 74  1  0
M  END
>  <i_m_ct_stereo_status>  (277) 
1

>  <s_m_source_file>  (277) 
/var/tmp/pbs.5076255.sched01/tmpavn81tjv/78c0r2i372.sdf

>  <i_m_source_file_index>  (277) 
30

>  <i_lp_mmshare_version>  (277) 
48012

>  <i_f3d_flags>  (277) 
0

>  <s_epik_input>  (277) 
W0NIMl0xW0NAQEhdKFtDSDJdMilbQ0BIXShbQ0gzXSlbQ0hdPVtDSF1bQ0BIXTNPW0NAQEhdKFtDQEhdNFtDQEBIXTJbQ0BAXTEzQyg9TylPW0NIM10pW0NAQEhdNVtDQF0oQzQ9TykoW0NIM10pW0NIMl1bQ0BASF0oW0NIMl1PQyg9TylbQ0gzXSlbQ0BIXTZbQ0BASF01T0MoTzYpKFtDSDNdKVtDSDNd

>  <s_epik_cmdline>  (277) 
J2VwaWtfcHl0aG9uJywgJy1waHQnLCAnMi4wJywgJy1waCcsICc3LjAnLCAnLXRuJywgJzgnLCAnLW1hJywgJzIwMCcsICctaW1hZScsICc8aW5maWxlLm1hZT4nLCAnLW9tYWUnLCAnPG91dGZpbGUubWFlPic=

>  <r_lp_tautomer_probability>  (277) 
1

>  <r_epik_Ionization_Penalty>  (277) 
3.72284e-12

>  <r_epik_Ionization_Penalty_Charging>  (277) 
0

>  <r_epik_Ionization_Penalty_Neutral>  (277) 
3.72284e-12

>  <r_epik_State_Penalty>  (277) 
-0

>  <r_epik_Charging_Adjusted_Penalty>  (277) 
0

>  <i_epik_Tot_Q>  (277) 
0

>  <i_epik_Tot_abs_Q>  (277) 
0

>  <s_epik_Chemistry_Notes>  (277) 
This compound has an ester and may undergo hydrolysis at high or low pH.

>  <s_lp_Force_Field>  (277) 
OPLS3e

>  <r_lp_Energy>  (277) 
24.0759

>  <b_lp_Chiralities_Consistent>  (277) 
1

>  <s_lp_Variant>  (277) 
79:0-1

>  <s_i_glide_gridfile>  (277) 
pfpi4k_grid

>  <i_i_glide_lignum>  (277) 
30

>  <i_i_glide_rotatable_bonds>  (277) 
5

>  <r_i_docking_score>  (277) 
-2.80892

>  <r_i_glide_ligand_efficiency>  (277) 
-0.0780255

>  <r_i_glide_ligand_efficiency_sa>  (277) 
-0.257635

>  <r_i_glide_ligand_efficiency_ln>  (277) 
-0.61283

>  <r_i_glide_gscore>  (277) 
-2.80892

>  <r_i_glide_lipo>  (277) 
-0.657266

>  <r_i_glide_hbond>  (277) 
0

>  <r_i_glide_metal>  (277) 
-0

>  <r_i_glide_rewards>  (277) 
-0.161626

>  <r_i_glide_evdw>  (277) 
-38.7936

>  <r_i_glide_ecoul>  (277) 
-1.83493

>  <r_i_glide_erotb>  (277) 
0.242684

>  <r_i_glide_esite>  (277) 
-0.0177919

>  <r_i_glide_emodel>  (277) 
-43.0266

>  <r_i_glide_energy>  (277) 
-40.6285

>  <r_i_glide_einternal>  (277) 
4.89506

>  <r_i_glide_intrahb_reward>  (277) 
-0

>  <i_i_glide_confnum>  (277) 
1

>  <i_i_glide_posenum>  (277) 
12

>  <r_i_glide_eff_state_penalty>  (277) 
0

>  <ligand_id>  (277) 
79

>  <original_smiles>  (277) 
COC(=O)C12CC3CC1C1C(=O)C4(C)CC(COC(C)=O)C5OC(C)(C)OC5C4C1OC2C=CC3C

>  <smiles>  (277) 
[H]C1=C([H])C([H])(C([H])([H])[H])C2([H])C([H])([H])C3([H])C4([H])C(=O)C5(C([H])([H])[H])C([H])([H])C([H])(C([H])([H])OC(=O)C([H])([H])[H])C6([H])OC(C([H])([H])[H])(C([H])([H])[H])OC6([H])C5([H])C4([H])OC1([H])C3(C(=O)OC([H])([H])[H])C2([H])[H]

$$$$
79:0:1
     RDKit          3D

 74 79  0  0  1  0  0  0  0  0999 V2000
    4.7203   -2.4983    4.1361 C   0  0  0  0  0  0  0  0  0  0  0  0
    4.6468   -2.8217    2.7608 O   0  0  0  0  0  0  0  0  0  0  0  0
    4.5590   -1.8482    1.8281 C   0  0  0  0  0  0  0  0  0  0  0  0
    4.6033   -0.6308    2.0768 O   0  0  0  0  0  0  0  0  0  0  0  0
    4.3694   -2.4101    0.3876 C   0  0  1  0  0  0  0  0  0  0  0  0
    4.6293   -1.3016   -0.6296 C   0  0  0  0  0  0  0  0  0  0  0  0
    5.1149   -1.9983   -1.8901 C   0  0  1  0  0  0  0  0  0  0  0  0
    5.8945   -3.2218   -1.3855 C   0  0  0  0  0  0  0  0  0  0  0  0
    5.4074   -3.5118    0.0524 C   0  0  2  0  0  0  0  0  0  0  0  0
    4.8953   -4.9737    0.2239 C   0  0  1  0  0  0  0  0  0  0  0  0
    5.8375   -5.8727    1.0081 C   0  0  0  0  0  0  0  0  0  0  0  0
    7.0735   -5.8310    0.9520 O   0  0  0  0  0  0  0  0  0  0  0  0
    5.0451   -6.8384    1.8881 C   0  0  1  0  0  0  0  0  0  0  0  0
    4.6654   -8.0574    1.0177 C   0  0  0  0  0  0  0  0  0  0  0  0
    5.7488   -7.2720    3.1882 C   0  0  0  0  0  0  0  0  0  0  0  0
    4.7688   -8.1095    4.0676 C   0  0  1  0  0  0  0  0  0  0  0  0
    5.4618   -8.5210    5.3870 C   0  0  0  0  0  0  0  0  0  0  0  0
    6.6170   -9.3075    5.1462 O   0  0  0  0  0  0  0  0  0  0  0  0
    7.7807   -8.7458    4.8617 C   0  0  0  0  0  0  0  0  0  0  0  0
    8.8669   -9.7236    4.4576 C   0  0  0  0  0  0  0  0  0  0  0  0
    7.9696   -7.5078    4.8330 O   0  0  0  0  0  0  0  0  0  0  0  0
    3.3688   -7.4225    4.2804 C   0  0  2  0  0  0  0  0  0  0  0  0
    2.3827   -8.4456    4.3627 O   0  0  0  0  0  0  0  0  0  0  0  0
    1.4592   -8.2769    3.3322 C   0  0  0  0  0  0  0  0  0  0  0  0
    1.2825   -9.5804    2.5676 C   0  0  0  0  0  0  0  0  0  0  0  0
    0.1515   -7.7575    3.9437 C   0  0  0  0  0  0  0  0  0  0  0  0
    1.9407   -7.3464    2.4320 O   0  0  0  0  0  0  0  0  0  0  0  0
    2.8172   -6.5247    3.1441 C   0  0  2  0  0  0  0  0  0  0  0  0
    3.8943   -5.9103    2.2568 C   0  0  2  0  0  0  0  0  0  0  0  0
    3.5323   -5.2125    0.9411 C   0  0  1  0  0  0  0  0  0  0  0  0
    2.7724   -4.0383    1.1953 O   0  0  0  0  0  0  0  0  0  0  0  0
    2.9313   -2.9774    0.2522 C   0  0  2  0  0  0  0  0  0  0  0  0
    2.4427   -3.4496   -1.1263 C   0  0  0  0  0  0  0  0  0  0  0  0
    2.8609   -3.1850   -2.3814 C   0  0  0  0  0  0  0  0  0  0  0  0
    4.0050   -2.3335   -2.9045 C   0  0  1  0  0  0  0  0  0  0  0  0
    3.4429   -1.0926   -3.6156 C   0  0  0  0  0  0  0  0  0  0  0  0
    4.7404   -3.4295    4.6965 H   0  0  0  0  0  0  0  0  0  0  0  0
    3.8550   -1.9197    4.4696 H   0  0  0  0  0  0  0  0  0  0  0  0
    5.6363   -1.9460    4.3467 H   0  0  0  0  0  0  0  0  0  0  0  0
    3.7583   -0.6661   -0.7936 H   0  0  0  0  0  0  0  0  0  0  0  0
    5.4462   -0.6643   -0.2947 H   0  0  0  0  0  0  0  0  0  0  0  0
    5.8149   -1.3297   -2.3819 H   0  0  0  0  0  0  0  0  0  0  0  0
    5.7890   -4.0659   -2.0694 H   0  0  0  0  0  0  0  0  0  0  0  0
    6.9592   -2.9868   -1.3663 H   0  0  0  0  0  0  0  0  0  0  0  0
    6.2766   -3.3423    0.6984 H   0  0  0  0  0  0  0  0  0  0  0  0
    4.8437   -5.4267   -0.7582 H   0  0  0  0  0  0  0  0  0  0  0  0
    3.8292   -8.5969    1.4389 H   0  0  0  0  0  0  0  0  0  0  0  0
    5.5064   -8.7460    0.9762 H   0  0  0  0  0  0  0  0  0  0  0  0
    4.4047   -7.7829   -0.0024 H   0  0  0  0  0  0  0  0  0  0  0  0
    6.6951   -7.7966    3.0016 H   0  0  0  0  0  0  0  0  0  0  0  0
    6.0655   -6.3799    3.7314 H   0  0  0  0  0  0  0  0  0  0  0  0
    4.5572   -9.0369    3.5204 H   0  0  0  0  0  0  0  0  0  0  0  0
    5.6755   -7.6552    6.0175 H   0  0  0  0  0  0  0  0  0  0  0  0
    4.7756   -9.1325    5.9559 H   0  0  0  0  0  0  0  0  0  0  0  0
    9.1239  -10.4400    5.2565 H   0  0  0  0  0  0  0  0  0  0  0  0
    9.7914   -9.2106    4.1578 H   0  0  0  0  0  0  0  0  0  0  0  0
    8.5305  -10.2946    3.5837 H   0  0  0  0  0  0  0  0  0  0  0  0
    3.3724   -6.8678    5.2239 H   0  0  0  0  0  0  0  0  0  0  0  0
    2.2358   -9.9410    2.1917 H   0  0  0  0  0  0  0  0  0  0  0  0
    0.6250   -9.3994    1.7193 H   0  0  0  0  0  0  0  0  0  0  0  0
    0.8419  -10.3319    3.2163 H   0  0  0  0  0  0  0  0  0  0  0  0
    0.3118   -6.8366    4.5094 H   0  0  0  0  0  0  0  0  0  0  0  0
   -0.2351   -8.5155    4.6256 H   0  0  0  0  0  0  0  0  0  0  0  0
   -0.5884   -7.5772    3.1607 H   0  0  0  0  0  0  0  0  0  0  0  0
    2.2301   -5.7306    3.5881 H   0  0  0  0  0  0  0  0  0  0  0  0
    4.3347   -5.1708    2.9154 H   0  0  0  0  0  0  0  0  0  0  0  0
    2.9338   -5.8821    0.3129 H   0  0  0  0  0  0  0  0  0  0  0  0
    2.2230   -2.2092    0.5507 H   0  0  0  0  0  0  0  0  0  0  0  0
    1.5838   -4.0914   -1.0700 H   0  0  0  0  0  0  0  0  0  0  0  0
    2.2934   -3.6467   -3.1715 H   0  0  0  0  0  0  0  0  0  0  0  0
    4.4705   -2.9477   -3.6784 H   0  0  0  0  0  0  0  0  0  0  0  0
    2.7980   -1.3849   -4.4420 H   0  0  0  0  0  0  0  0  0  0  0  0
    4.2390   -0.4667   -4.0176 H   0  0  0  0  0  0  0  0  0  0  0  0
    2.8420   -0.4863   -2.9376 H   0  0  0  0  0  0  0  0  0  0  0  0
  1  2  1  0
  1 37  1  0
  1 38  1  0
  1 39  1  0
  2  3  1  0
  3  4  2  0
  5  3  1  1
  5  9  1  0
  5 32  1  0
  5  6  1  0
  6  7  1  0
  6 40  1  0
  6 41  1  0
  7 35  1  0
  7  8  1  0
  7 42  1  6
  8  9  1  0
  8 43  1  0
  8 44  1  0
  9 10  1  0
  9 45  1  1
 10 30  1  0
 10 11  1  0
 10 46  1  6
 11 12  2  0
 11 13  1  0
 13 29  1  0
 13 14  1  6
 13 15  1  0
 14 47  1  0
 14 48  1  0
 14 49  1  0
 15 16  1  0
 15 50  1  0
 15 51  1  0
 16 17  1  0
 16 22  1  0
 16 52  1  6
 17 18  1  0
 17 53  1  0
 17 54  1  0
 18 19  1  0
 19 20  1  0
 19 21  2  0
 20 55  1  0
 20 56  1  0
 20 57  1  0
 22 28  1  0
 22 23  1  0
 22 58  1  1
 23 24  1  0
 24 25  1  0
 24 26  1  0
 24 27  1  0
 25 59  1  0
 25 60  1  0
 25 61  1  0
 26 62  1  0
 26 63  1  0
 26 64  1  0
 27 28  1  0
 28 29  1  0
 28 65  1  1
 29 30  1  0
 29 66  1  1
 30 31  1  0
 30 67  1  6
 31 32  1  0
 32 33  1  0
 32 68  1  1
 33 34  2  0
 33 69  1  0
 34 35  1  0
 34 70  1  0
 35 36  1  0
 35 71  1  6
 36 72  1  0
 36 73  1  0
 36 74  1  0
M  END
>  <i_m_ct_stereo_status>  (278) 
1

>  <s_m_source_file>  (278) 
/var/tmp/pbs.5076255.sched01/tmpavn81tjv/78c0r2i372.sdf

>  <i_m_source_file_index>  (278) 
30

>  <i_lp_mmshare_version>  (278) 
48012

>  <i_f3d_flags>  (278) 
0

>  <s_epik_input>  (278) 
W0NIMl0xW0NAQEhdKFtDSDJdMilbQ0BIXShbQ0gzXSlbQ0hdPVtDSF1bQ0BIXTNPW0NAQEhdKFtDQEhdNFtDQEBIXTJbQ0BAXTEzQyg9TylPW0NIM10pW0NAQEhdNVtDQF0oQzQ9TykoW0NIM10pW0NIMl1bQ0BASF0oW0NIMl1PQyg9TylbQ0gzXSlbQ0BIXTZbQ0BASF01T0MoTzYpKFtDSDNdKVtDSDNd

>  <s_epik_cmdline>  (278) 
J2VwaWtfcHl0aG9uJywgJy1waHQnLCAnMi4wJywgJy1waCcsICc3LjAnLCAnLXRuJywgJzgnLCAnLW1hJywgJzIwMCcsICctaW1hZScsICc8aW5maWxlLm1hZT4nLCAnLW9tYWUnLCAnPG91dGZpbGUubWFlPic=

>  <r_lp_tautomer_probability>  (278) 
1

>  <r_epik_Ionization_Penalty>  (278) 
3.72284e-12

>  <r_epik_Ionization_Penalty_Charging>  (278) 
0

>  <r_epik_Ionization_Penalty_Neutral>  (278) 
3.72284e-12

>  <r_epik_State_Penalty>  (278) 
-0

>  <r_epik_Charging_Adjusted_Penalty>  (278) 
0

>  <i_epik_Tot_Q>  (278) 
0

>  <i_epik_Tot_abs_Q>  (278) 
0

>  <s_epik_Chemistry_Notes>  (278) 
This compound has an ester and may undergo hydrolysis at high or low pH.

>  <s_lp_Force_Field>  (278) 
OPLS3e

>  <r_lp_Energy>  (278) 
24.0759

>  <b_lp_Chiralities_Consistent>  (278) 
1

>  <s_lp_Variant>  (278) 
79:0-1

>  <s_i_glide_gridfile>  (278) 
pfpi4k_grid

>  <i_i_glide_lignum>  (278) 
30

>  <i_i_glide_rotatable_bonds>  (278) 
5

>  <r_i_docking_score>  (278) 
-2.66623

>  <r_i_glide_ligand_efficiency>  (278) 
-0.0740619

>  <r_i_glide_ligand_efficiency_sa>  (278) 
-0.244547

>  <r_i_glide_ligand_efficiency_ln>  (278) 
-0.581699

>  <r_i_glide_gscore>  (278) 
-2.66623

>  <r_i_glide_lipo>  (278) 
-0.789394

>  <r_i_glide_hbond>  (278) 
0

>  <r_i_glide_metal>  (278) 
-0

>  <r_i_glide_rewards>  (278) 
-0.158682

>  <r_i_glide_evdw>  (278) 
-37.8458

>  <r_i_glide_ecoul>  (278) 
-0.374438

>  <r_i_glide_erotb>  (278) 
0.242684

>  <r_i_glide_esite>  (278) 
-0.0123817

>  <r_i_glide_emodel>  (278) 
-41.8603

>  <r_i_glide_energy>  (278) 
-38.2202

>  <r_i_glide_einternal>  (278) 
1.18675

>  <r_i_glide_intrahb_reward>  (278) 
-0

>  <i_i_glide_confnum>  (278) 
1

>  <i_i_glide_posenum>  (278) 
7

>  <r_i_glide_eff_state_penalty>  (278) 
0

>  <ligand_id>  (278) 
79

>  <original_smiles>  (278) 
COC(=O)C12CC3CC1C1C(=O)C4(C)CC(COC(C)=O)C5OC(C)(C)OC5C4C1OC2C=CC3C

>  <smiles>  (278) 
[H]C1=C([H])C([H])(C([H])([H])[H])C2([H])C([H])([H])C3([H])C4([H])C(=O)C5(C([H])([H])[H])C([H])([H])C([H])(C([H])([H])OC(=O)C([H])([H])[H])C6([H])OC(C([H])([H])[H])(C([H])([H])[H])OC6([H])C5([H])C4([H])OC1([H])C3(C(=O)OC([H])([H])[H])C2([H])[H]

$$$$
79:0:2
     RDKit          3D

 74 79  0  0  1  0  0  0  0  0999 V2000
    5.1041   -8.3627    5.9314 C   0  0  0  0  0  0  0  0  0  0  0  0
    3.9160   -8.1305    5.1946 O   0  0  0  0  0  0  0  0  0  0  0  0
    3.1455   -7.0679    5.4931 C   0  0  0  0  0  0  0  0  0  0  0  0
    3.4120   -6.2316    6.3597 O   0  0  0  0  0  0  0  0  0  0  0  0
    1.8872   -6.9632    4.5889 C   0  0  1  0  0  0  0  0  0  0  0  0
    1.0770   -8.2622    4.7164 C   0  0  0  0  0  0  0  0  0  0  0  0
   -0.3684   -7.8731    4.4180 C   0  0  1  0  0  0  0  0  0  0  0  0
   -0.5069   -6.4477    4.9628 C   0  0  0  0  0  0  0  0  0  0  0  0
    0.9083   -5.8510    5.0619 C   0  0  2  0  0  0  0  0  0  0  0  0
    1.0559   -4.4838    4.3342 C   0  0  1  0  0  0  0  0  0  0  0  0
    1.1314   -3.2600    5.2534 C   0  0  0  0  0  0  0  0  0  0  0  0
    0.4652   -3.1078    6.2782 O   0  0  0  0  0  0  0  0  0  0  0  0
    2.1118   -2.2409    4.6839 C   0  0  1  0  0  0  0  0  0  0  0  0
    1.3340   -1.3969    3.6405 C   0  0  0  0  0  0  0  0  0  0  0  0
    2.8615   -1.3494    5.6871 C   0  0  0  0  0  0  0  0  0  0  0  0
    3.9098   -0.4746    4.9467 C   0  0  1  0  0  0  0  0  0  0  0  0
    4.6909    0.4211    5.9351 C   0  0  0  0  0  0  0  0  0  0  0  0
    3.7992    1.2954    6.6230 O   0  0  0  0  0  0  0  0  0  0  0  0
    3.6116    2.5599    6.2046 C   0  0  0  0  0  0  0  0  0  0  0  0
    2.5492    3.2944    7.0170 C   0  0  0  0  0  0  0  0  0  0  0  0
    4.2041    3.1080    5.2800 O   0  0  0  0  0  0  0  0  0  0  0  0
    4.8660   -1.2928    4.0197 C   0  0  2  0  0  0  0  0  0  0  0  0
    5.2139   -0.4654    2.9157 O   0  0  0  0  0  0  0  0  0  0  0  0
    4.7856   -1.0905    1.7435 C   0  0  0  0  0  0  0  0  0  0  0  0
    3.9810   -0.1019    0.8969 C   0  0  0  0  0  0  0  0  0  0  0  0
    6.0257   -1.6100    0.9942 C   0  0  0  0  0  0  0  0  0  0  0  0
    3.9350   -2.1396    2.0451 O   0  0  0  0  0  0  0  0  0  0  0  0
    4.2928   -2.5618    3.3356 C   0  0  2  0  0  0  0  0  0  0  0  0
    3.1292   -3.2201    4.0930 C   0  0  2  0  0  0  0  0  0  0  0  0
    2.2856   -4.3015    3.3962 C   0  0  1  0  0  0  0  0  0  0  0  0
    3.0673   -5.4688    3.1610 O   0  0  0  0  0  0  0  0  0  0  0  0
    2.3473   -6.6969    3.1311 C   0  0  2  0  0  0  0  0  0  0  0  0
    1.3096   -6.6998    2.0048 C   0  0  0  0  0  0  0  0  0  0  0  0
    0.0645   -7.2111    1.9237 C   0  0  0  0  0  0  0  0  0  0  0  0
   -0.7709   -7.9908    2.9326 C   0  0  1  0  0  0  0  0  0  0  0  0
   -0.9063   -9.4520    2.4872 C   0  0  0  0  0  0  0  0  0  0  0  0
    5.6047   -9.2503    5.5449 H   0  0  0  0  0  0  0  0  0  0  0  0
    4.8748   -8.5288    6.9840 H   0  0  0  0  0  0  0  0  0  0  0  0
    5.7902   -7.5189    5.8495 H   0  0  0  0  0  0  0  0  0  0  0  0
    1.4485   -9.0657    4.0787 H   0  0  0  0  0  0  0  0  0  0  0  0
    1.1187   -8.6276    5.7454 H   0  0  0  0  0  0  0  0  0  0  0  0
   -1.0344   -8.5330    4.9811 H   0  0  0  0  0  0  0  0  0  0  0  0
   -1.1860   -5.8596    4.3521 H   0  0  0  0  0  0  0  0  0  0  0  0
   -0.9443   -6.4775    5.9596 H   0  0  0  0  0  0  0  0  0  0  0  0
    1.0516   -5.6871    6.1325 H   0  0  0  0  0  0  0  0  0  0  0  0
    0.1813   -4.3367    3.7113 H   0  0  0  0  0  0  0  0  0  0  0  0
    1.9928   -0.9152    2.9275 H   0  0  0  0  0  0  0  0  0  0  0  0
    0.7653   -0.6074    4.1314 H   0  0  0  0  0  0  0  0  0  0  0  0
    0.6301   -1.9888    3.0538 H   0  0  0  0  0  0  0  0  0  0  0  0
    2.1469   -0.7212    6.2166 H   0  0  0  0  0  0  0  0  0  0  0  0
    3.3510   -1.9562    6.4535 H   0  0  0  0  0  0  0  0  0  0  0  0
    3.3631    0.2053    4.2925 H   0  0  0  0  0  0  0  0  0  0  0  0
    5.1985   -0.1942    6.6775 H   0  0  0  0  0  0  0  0  0  0  0  0
    5.4748    0.9790    5.4196 H   0  0  0  0  0  0  0  0  0  0  0  0
    1.6133    2.7367    7.0195 H   0  0  0  0  0  0  0  0  0  0  0  0
    2.3590    4.2765    6.5861 H   0  0  0  0  0  0  0  0  0  0  0  0
    2.8767    3.4299    8.0470 H   0  0  0  0  0  0  0  0  0  0  0  0
    5.7687   -1.5651    4.5666 H   0  0  0  0  0  0  0  0  0  0  0  0
    3.1477    0.3024    1.4675 H   0  0  0  0  0  0  0  0  0  0  0  0
    3.5847   -0.6095    0.0141 H   0  0  0  0  0  0  0  0  0  0  0  0
    4.6180    0.7200    0.5795 H   0  0  0  0  0  0  0  0  0  0  0  0
    6.5966   -2.2962    1.6173 H   0  0  0  0  0  0  0  0  0  0  0  0
    6.6649   -0.7628    0.7403 H   0  0  0  0  0  0  0  0  0  0  0  0
    5.7279   -2.1176    0.0756 H   0  0  0  0  0  0  0  0  0  0  0  0
    5.0949   -3.2957    3.2158 H   0  0  0  0  0  0  0  0  0  0  0  0
    3.6133   -3.7302    4.9300 H   0  0  0  0  0  0  0  0  0  0  0  0
    1.9343   -3.9344    2.4300 H   0  0  0  0  0  0  0  0  0  0  0  0
    3.0669   -7.4623    2.8349 H   0  0  0  0  0  0  0  0  0  0  0  0
    1.6875   -6.2325    1.1053 H   0  0  0  0  0  0  0  0  0  0  0  0
   -0.4340   -7.1161    0.9701 H   0  0  0  0  0  0  0  0  0  0  0  0
   -1.7754   -7.5713    2.8551 H   0  0  0  0  0  0  0  0  0  0  0  0
   -1.3882   -9.5198    1.5127 H   0  0  0  0  0  0  0  0  0  0  0  0
   -1.5152  -10.0124    3.1927 H   0  0  0  0  0  0  0  0  0  0  0  0
    0.0618   -9.9497    2.4151 H   0  0  0  0  0  0  0  0  0  0  0  0
  1  2  1  0
  1 37  1  0
  1 38  1  0
  1 39  1  0
  2  3  1  0
  3  4  2  0
  5  3  1  1
  5  9  1  0
  5 32  1  0
  5  6  1  0
  6  7  1  0
  6 40  1  0
  6 41  1  0
  7 35  1  0
  7  8  1  0
  7 42  1  1
  8  9  1  0
  8 43  1  0
  8 44  1  0
  9 10  1  0
  9 45  1  1
 10 30  1  0
 10 11  1  0
 10 46  1  6
 11 12  2  0
 11 13  1  0
 13 29  1  0
 13 14  1  6
 13 15  1  0
 14 47  1  0
 14 48  1  0
 14 49  1  0
 15 16  1  0
 15 50  1  0
 15 51  1  0
 16 17  1  0
 16 22  1  0
 16 52  1  6
 17 18  1  0
 17 53  1  0
 17 54  1  0
 18 19  1  0
 19 20  1  0
 19 21  2  0
 20 55  1  0
 20 56  1  0
 20 57  1  0
 22 28  1  0
 22 23  1  0
 22 58  1  1
 23 24  1  0
 24 25  1  0
 24 26  1  0
 24 27  1  0
 25 59  1  0
 25 60  1  0
 25 61  1  0
 26 62  1  0
 26 63  1  0
 26 64  1  0
 27 28  1  0
 28 29  1  0
 28 65  1  6
 29 30  1  0
 29 66  1  1
 30 31  1  0
 30 67  1  6
 31 32  1  0
 32 33  1  0
 32 68  1  6
 33 34  2  0
 33 69  1  0
 34 35  1  0
 34 70  1  0
 35 36  1  0
 35 71  1  1
 36 72  1  0
 36 73  1  0
 36 74  1  0
M  END
>  <i_m_ct_stereo_status>  (279) 
1

>  <s_m_source_file>  (279) 
/var/tmp/pbs.5076255.sched01/tmpavn81tjv/78c0r2i372.sdf

>  <i_m_source_file_index>  (279) 
30

>  <i_lp_mmshare_version>  (279) 
48012

>  <i_f3d_flags>  (279) 
0

>  <s_epik_input>  (279) 
W0NIMl0xW0NAQEhdKFtDSDJdMilbQ0BIXShbQ0gzXSlbQ0hdPVtDSF1bQ0BIXTNPW0NAQEhdKFtDQEhdNFtDQEBIXTJbQ0BAXTEzQyg9TylPW0NIM10pW0NAQEhdNVtDQF0oQzQ9TykoW0NIM10pW0NIMl1bQ0BASF0oW0NIMl1PQyg9TylbQ0gzXSlbQ0BIXTZbQ0BASF01T0MoTzYpKFtDSDNdKVtDSDNd

>  <s_epik_cmdline>  (279) 
J2VwaWtfcHl0aG9uJywgJy1waHQnLCAnMi4wJywgJy1waCcsICc3LjAnLCAnLXRuJywgJzgnLCAnLW1hJywgJzIwMCcsICctaW1hZScsICc8aW5maWxlLm1hZT4nLCAnLW9tYWUnLCAnPG91dGZpbGUubWFlPic=

>  <r_lp_tautomer_probability>  (279) 
1

>  <r_epik_Ionization_Penalty>  (279) 
3.72284e-12

>  <r_epik_Ionization_Penalty_Charging>  (279) 
0

>  <r_epik_Ionization_Penalty_Neutral>  (279) 
3.72284e-12

>  <r_epik_State_Penalty>  (279) 
-0

>  <r_epik_Charging_Adjusted_Penalty>  (279) 
0

>  <i_epik_Tot_Q>  (279) 
0

>  <i_epik_Tot_abs_Q>  (279) 
0

>  <s_epik_Chemistry_Notes>  (279) 
This compound has an ester and may undergo hydrolysis at high or low pH.

>  <s_lp_Force_Field>  (279) 
OPLS3e

>  <r_lp_Energy>  (279) 
24.0759

>  <b_lp_Chiralities_Consistent>  (279) 
1

>  <s_lp_Variant>  (279) 
79:0-1

>  <s_i_glide_gridfile>  (279) 
pfpi4k_grid

>  <i_i_glide_lignum>  (279) 
30

>  <i_i_glide_rotatable_bonds>  (279) 
5

>  <r_i_docking_score>  (279) 
-2.05731

>  <r_i_glide_ligand_efficiency>  (279) 
-0.0571474

>  <r_i_glide_ligand_efficiency_sa>  (279) 
-0.188696

>  <r_i_glide_ligand_efficiency_ln>  (279) 
-0.448849

>  <r_i_glide_gscore>  (279) 
-2.05731

>  <r_i_glide_lipo>  (279) 
-0.473159

>  <r_i_glide_hbond>  (279) 
0

>  <r_i_glide_metal>  (279) 
-0

>  <r_i_glide_rewards>  (279) 
-0.114623

>  <r_i_glide_evdw>  (279) 
-28.8366

>  <r_i_glide_ecoul>  (279) 
-1.80252

>  <r_i_glide_erotb>  (279) 
0.242684

>  <r_i_glide_esite>  (279) 
0

>  <r_i_glide_emodel>  (279) 
-35.1537

>  <r_i_glide_energy>  (279) 
-30.6391

>  <r_i_glide_einternal>  (279) 
0.540354

>  <r_i_glide_intrahb_reward>  (279) 
-0

>  <i_i_glide_confnum>  (279) 
2

>  <i_i_glide_posenum>  (279) 
10

>  <r_i_glide_eff_state_penalty>  (279) 
0

>  <ligand_id>  (279) 
79

>  <original_smiles>  (279) 
COC(=O)C12CC3CC1C1C(=O)C4(C)CC(COC(C)=O)C5OC(C)(C)OC5C4C1OC2C=CC3C

>  <smiles>  (279) 
[H]C1=C([H])C([H])(C([H])([H])[H])C2([H])C([H])([H])C3([H])C4([H])C(=O)C5(C([H])([H])[H])C([H])([H])C([H])(C([H])([H])OC(=O)C([H])([H])[H])C6([H])OC(C([H])([H])[H])(C([H])([H])[H])OC6([H])C5([H])C4([H])OC1([H])C3(C(=O)OC([H])([H])[H])C2([H])[H]

$$$$
80:0:0
     RDKit          3D

 49 52  0  0  1  0  0  0  0  0999 V2000
    3.9795   -1.8954   -3.6059 C   0  0  0  0  0  0  0  0  0  0  0  0
    3.2362   -2.5928   -2.4661 C   0  0  0  0  0  0  0  0  0  0  0  0
    1.8657   -3.0258   -2.9668 C   0  0  0  0  0  0  0  0  0  0  0  0
    3.9752   -3.7022   -2.0647 O   0  0  0  0  0  0  0  0  0  0  0  0
    3.9161   -3.7719   -0.6849 C   0  0  1  0  0  0  0  0  0  0  0  0
    2.6639   -4.6176   -0.2815 C   0  0  0  0  0  0  0  0  0  0  0  0
    5.0312   -4.3591   -0.1235 O   0  0  0  0  0  0  0  0  0  0  0  0
    5.1779   -4.2984    1.3049 C   0  0  0  0  0  0  0  0  0  0  0  0
    4.8947   -5.7087    1.8638 C   0  0  0  0  0  0  0  0  0  0  0  0
    6.6913   -4.1163    1.4380 C   0  0  0  0  0  0  0  0  0  0  0  0
    4.2455   -3.2355    2.0445 C   0  0  1  0  0  0  0  0  0  0  0  0
    4.8140   -2.4940    3.2612 C   0  0  0  0  0  0  0  0  0  0  0  0
    5.2003   -1.0909    2.7873 C   0  0  1  0  0  0  0  0  0  0  0  0
    6.5378   -1.0632    2.3785 O   0  0  0  0  0  0  0  0  0  0  0  0
    4.3030   -0.7913    1.5948 C   0  0  1  0  0  0  0  0  0  0  0  0
    4.9969   -0.3013    0.3374 C   0  0  0  0  0  0  0  0  0  0  0  0
    5.2016   -1.5179   -0.5480 C   0  0  0  0  0  0  0  0  0  0  0  0
    3.8858   -2.2850   -0.3356 C   0  0  1  0  0  0  0  0  0  0  0  0
    3.0934   -1.7264   -1.3642 O   0  0  0  0  0  0  0  0  0  0  0  0
    3.6128   -2.1000    1.1868 C   0  0  1  0  0  0  0  0  0  0  0  0
    2.1514   -1.8927    1.5445 C   0  0  0  0  0  0  0  0  0  0  0  0
    5.0591   -1.9584   -3.4847 H   0  0  0  0  0  0  0  0  0  0  0  0
    3.6529   -0.8589   -3.6202 H   0  0  0  0  0  0  0  0  0  0  0  0
    3.6983   -2.3694   -4.5527 H   0  0  0  0  0  0  0  0  0  0  0  0
    1.1134   -3.0465   -2.1792 H   0  0  0  0  0  0  0  0  0  0  0  0
    1.9479   -4.0039   -3.4362 H   0  0  0  0  0  0  0  0  0  0  0  0
    1.5145   -2.3266   -3.7219 H   0  0  0  0  0  0  0  0  0  0  0  0
    2.7869   -5.6381   -0.6270 H   0  0  0  0  0  0  0  0  0  0  0  0
    1.7504   -4.2347   -0.7029 H   0  0  0  0  0  0  0  0  0  0  0  0
    2.4952   -4.6986    0.7863 H   0  0  0  0  0  0  0  0  0  0  0  0
    5.1196   -5.7502    2.9316 H   0  0  0  0  0  0  0  0  0  0  0  0
    5.5198   -6.4487    1.3651 H   0  0  0  0  0  0  0  0  0  0  0  0
    3.8659   -6.0392    1.7481 H   0  0  0  0  0  0  0  0  0  0  0  0
    6.9957   -4.2870    2.4629 H   0  0  0  0  0  0  0  0  0  0  0  0
    7.0473   -3.1451    1.1171 H   0  0  0  0  0  0  0  0  0  0  0  0
    7.2114   -4.8530    0.8195 H   0  0  0  0  0  0  0  0  0  0  0  0
    3.4150   -3.8105    2.4580 H   0  0  0  0  0  0  0  0  0  0  0  0
    4.0026   -2.3635    3.9817 H   0  0  0  0  0  0  0  0  0  0  0  0
    5.6104   -3.0120    3.7852 H   0  0  0  0  0  0  0  0  0  0  0  0
    5.0614   -0.3514    3.5779 H   0  0  0  0  0  0  0  0  0  0  0  0
    6.8125   -0.1599    2.2626 H   0  0  0  0  0  0  0  0  0  0  0  0
    3.5773   -0.0275    1.8986 H   0  0  0  0  0  0  0  0  0  0  0  0
    4.2601    0.3410   -0.1345 H   0  0  0  0  0  0  0  0  0  0  0  0
    5.9098    0.2746    0.4854 H   0  0  0  0  0  0  0  0  0  0  0  0
    5.3720   -1.1673   -1.5592 H   0  0  0  0  0  0  0  0  0  0  0  0
    6.0804   -2.0836   -0.2840 H   0  0  0  0  0  0  0  0  0  0  0  0
    1.8526   -1.0140    0.9836 H   0  0  0  0  0  0  0  0  0  0  0  0
    1.9466   -1.7052    2.6038 H   0  0  0  0  0  0  0  0  0  0  0  0
    1.5521   -2.7277    1.2240 H   0  0  0  0  0  0  0  0  0  0  0  0
  1  2  1  0
  1 22  1  0
  1 23  1  0
  1 24  1  0
  2 19  1  0
  2  3  1  0
  2  4  1  0
  3 25  1  0
  3 26  1  0
  3 27  1  0
  4  5  1  0
  5 18  1  0
  5  6  1  6
  5  7  1  0
  6 28  1  0
  6 29  1  0
  6 30  1  0
  7  8  1  0
  8  9  1  0
  8 10  1  0
  8 11  1  0
  9 31  1  0
  9 32  1  0
  9 33  1  0
 10 34  1  0
 10 35  1  0
 10 36  1  0
 11 20  1  0
 11 12  1  0
 11 37  1  1
 12 13  1  0
 12 38  1  0
 12 39  1  0
 13 14  1  0
 13 15  1  0
 13 40  1  1
 14 41  1  0
 15 20  1  0
 15 16  1  0
 15 42  1  1
 16 17  1  0
 16 43  1  0
 16 44  1  0
 17 18  1  0
 17 45  1  0
 17 46  1  0
 18 19  1  6
 18 20  1  0
 20 21  1  6
 21 47  1  0
 21 48  1  0
 21 49  1  0
M  END
>  <i_m_ct_stereo_status>  (280) 
1

>  <s_m_source_file>  (280) 
/var/tmp/pbs.5076255.sched01/tmpavn81tjv/78c0r2i372.sdf

>  <i_m_source_file_index>  (280) 
31

>  <i_lp_mmshare_version>  (280) 
48012

>  <i_f3d_flags>  (280) 
0

>  <s_epik_input>  (280) 
W0NIM11DKE8xKShbQ0gzXSlPW0NAQF0oW0NAXTEyMykoW0NIM10pT0MoW0NIM10pKFtDSDNdKVtDQEBIXTRbQ0BAXTMoW0NIM10pW0NAQEhdKFtDQEBIXShbQ0gyXTQpW09IXSlbQ0gyXVtDSDJdMg==

>  <s_epik_cmdline>  (280) 
J2VwaWtfcHl0aG9uJywgJy1waHQnLCAnMi4wJywgJy1waCcsICc3LjAnLCAnLXRuJywgJzgnLCAnLW1hJywgJzIwMCcsICctaW1hZScsICc8aW5maWxlLm1hZT4nLCAnLW9tYWUnLCAnPG91dGZpbGUubWFlPic=

>  <r_lp_tautomer_probability>  (280) 
1

>  <r_epik_Ionization_Penalty>  (280) 
3.71506e-07

>  <r_epik_Ionization_Penalty_Charging>  (280) 
0

>  <r_epik_Ionization_Penalty_Neutral>  (280) 
3.71506e-07

>  <r_epik_State_Penalty>  (280) 
-0

>  <r_epik_Charging_Adjusted_Penalty>  (280) 
0

>  <i_epik_Tot_Q>  (280) 
0

>  <i_epik_Tot_abs_Q>  (280) 
0

>  <s_lp_Force_Field>  (280) 
OPLS3e

>  <r_lp_Energy>  (280) 
56.6631

>  <b_lp_Chiralities_Consistent>  (280) 
1

>  <s_lp_Variant>  (280) 
80:0-1

>  <s_i_glide_gridfile>  (280) 
pfpi4k_grid

>  <i_i_glide_lignum>  (280) 
31

>  <i_i_glide_rotatable_bonds>  (280) 
1

>  <r_i_docking_score>  (280) 
-3.14733

>  <r_i_glide_ligand_efficiency>  (280) 
-0.149873

>  <r_i_glide_ligand_efficiency_sa>  (280) 
-0.413488

>  <r_i_glide_ligand_efficiency_ln>  (280) 
-0.778171

>  <r_i_glide_gscore>  (280) 
-3.14733

>  <r_i_glide_lipo>  (280) 
-0.879819

>  <r_i_glide_hbond>  (280) 
-0.32

>  <r_i_glide_metal>  (280) 
-0

>  <r_i_glide_rewards>  (280) 
-1.38817

>  <r_i_glide_evdw>  (280) 
-9.1839

>  <r_i_glide_ecoul>  (280) 
-0.392699

>  <r_i_glide_erotb>  (280) 
0

>  <r_i_glide_esite>  (280) 
-0.0412432

>  <r_i_glide_emodel>  (280) 
-9.27396

>  <r_i_glide_energy>  (280) 
-9.5766

>  <r_i_glide_einternal>  (280) 
0.324937

>  <r_i_glide_intrahb_reward>  (280) 
-0

>  <i_i_glide_confnum>  (280) 
1

>  <i_i_glide_posenum>  (280) 
1

>  <r_i_glide_eff_state_penalty>  (280) 
0

>  <ligand_id>  (280) 
80

>  <original_smiles>  (280) 
CC1(C)OC2(C)OC(C)(C)C3CC(O)C4CCC2(O1)C43C

>  <smiles>  (280) 
[H]OC1([H])C([H])([H])C2([H])C(C([H])([H])[H])(C([H])([H])[H])OC3(C([H])([H])[H])OC(C([H])([H])[H])(C([H])([H])[H])OC34C([H])([H])C([H])([H])C1([H])C24C([H])([H])[H]

$$$$
80:0:1
     RDKit          3D

 49 52  0  0  1  0  0  0  0  0999 V2000
    4.0007   -0.0195   -3.4064 C   0  0  0  0  0  0  0  0  0  0  0  0
    3.8270   -1.4793   -3.0301 C   0  0  0  0  0  0  0  0  0  0  0  0
    3.0682   -2.1613   -4.1549 C   0  0  0  0  0  0  0  0  0  0  0  0
    5.0961   -2.0367   -2.8567 O   0  0  0  0  0  0  0  0  0  0  0  0
    5.0410   -2.7939   -1.7137 C   0  0  1  0  0  0  0  0  0  0  0  0
    4.6791   -4.1884   -2.2124 C   0  0  0  0  0  0  0  0  0  0  0  0
    6.2107   -2.8782   -0.9903 O   0  0  0  0  0  0  0  0  0  0  0  0
    6.1178   -3.5599    0.2831 C   0  0  0  0  0  0  0  0  0  0  0  0
    6.7717   -4.9434    0.1984 C   0  0  0  0  0  0  0  0  0  0  0  0
    7.1002   -2.7635    1.0798 C   0  0  0  0  0  0  0  0  0  0  0  0
    4.6759   -3.7449    0.9166 C   0  0  1  0  0  0  0  0  0  0  0  0
    4.5645   -3.6331    2.4376 C   0  0  0  0  0  0  0  0  0  0  0  0
    4.0230   -2.2396    2.7311 C   0  0  1  0  0  0  0  0  0  0  0  0
    5.0870   -1.3684    3.0557 O   0  0  0  0  0  0  0  0  0  0  0  0
    3.2175   -1.8451    1.4719 C   0  0  1  0  0  0  0  0  0  0  0  0
    3.5171   -0.4595    0.8949 C   0  0  0  0  0  0  0  0  0  0  0  0
    4.4979   -0.7261   -0.2358 C   0  0  0  0  0  0  0  0  0  0  0  0
    3.9920   -2.0346   -0.8780 C   0  0  1  0  0  0  0  0  0  0  0  0
    3.0734   -1.6138   -1.8541 O   0  0  0  0  0  0  0  0  0  0  0  0
    3.5402   -2.8636    0.3381 C   0  0  1  0  0  0  0  0  0  0  0  0
    2.2953   -3.7121    0.0126 C   0  0  0  0  0  0  0  0  0  0  0  0
    4.8085    0.4352   -2.8429 H   0  0  0  0  0  0  0  0  0  0  0  0
    3.0665    0.4905   -3.1888 H   0  0  0  0  0  0  0  0  0  0  0  0
    4.2338    0.0839   -4.4662 H   0  0  0  0  0  0  0  0  0  0  0  0
    2.4401   -2.9872   -3.8150 H   0  0  0  0  0  0  0  0  0  0  0  0
    3.7914   -2.5192   -4.8726 H   0  0  0  0  0  0  0  0  0  0  0  0
    2.4151   -1.4308   -4.6337 H   0  0  0  0  0  0  0  0  0  0  0  0
    5.4711   -4.5463   -2.8714 H   0  0  0  0  0  0  0  0  0  0  0  0
    3.7832   -4.1577   -2.7894 H   0  0  0  0  0  0  0  0  0  0  0  0
    4.5457   -4.9131   -1.4240 H   0  0  0  0  0  0  0  0  0  0  0  0
    6.8650   -5.4229    1.1905 H   0  0  0  0  0  0  0  0  0  0  0  0
    7.7592   -4.8788   -0.2401 H   0  0  0  0  0  0  0  0  0  0  0  0
    6.1860   -5.6377   -0.3608 H   0  0  0  0  0  0  0  0  0  0  0  0
    7.2506   -3.3079    2.0000 H   0  0  0  0  0  0  0  0  0  0  0  0
    6.8221   -1.7474    1.3153 H   0  0  0  0  0  0  0  0  0  0  0  0
    8.0663   -2.7160    0.5648 H   0  0  0  0  0  0  0  0  0  0  0  0
    4.3965   -4.7757    0.7078 H   0  0  0  0  0  0  0  0  0  0  0  0
    3.8122   -4.3504    2.7710 H   0  0  0  0  0  0  0  0  0  0  0  0
    5.4681   -3.8817    2.9959 H   0  0  0  0  0  0  0  0  0  0  0  0
    3.3729   -2.2677    3.6036 H   0  0  0  0  0  0  0  0  0  0  0  0
    4.7192   -0.5155    3.2357 H   0  0  0  0  0  0  0  0  0  0  0  0
    2.1580   -1.8796    1.7320 H   0  0  0  0  0  0  0  0  0  0  0  0
    2.5948   -0.0697    0.4796 H   0  0  0  0  0  0  0  0  0  0  0  0
    3.8574    0.2856    1.6141 H   0  0  0  0  0  0  0  0  0  0  0  0
    4.5097    0.1265   -0.8885 H   0  0  0  0  0  0  0  0  0  0  0  0
    5.4961   -0.8094    0.1482 H   0  0  0  0  0  0  0  0  0  0  0  0
    1.5030   -3.0717   -0.3666 H   0  0  0  0  0  0  0  0  0  0  0  0
    1.9455   -4.2178    0.9124 H   0  0  0  0  0  0  0  0  0  0  0  0
    2.4653   -4.4620   -0.7565 H   0  0  0  0  0  0  0  0  0  0  0  0
  1  2  1  0
  1 22  1  0
  1 23  1  0
  1 24  1  0
  2 19  1  0
  2  3  1  0
  2  4  1  0
  3 25  1  0
  3 26  1  0
  3 27  1  0
  4  5  1  0
  5 18  1  0
  5  6  1  6
  5  7  1  0
  6 28  1  0
  6 29  1  0
  6 30  1  0
  7  8  1  0
  8  9  1  0
  8 10  1  0
  8 11  1  0
  9 31  1  0
  9 32  1  0
  9 33  1  0
 10 34  1  0
 10 35  1  0
 10 36  1  0
 11 20  1  0
 11 12  1  0
 11 37  1  1
 12 13  1  0
 12 38  1  0
 12 39  1  0
 13 14  1  0
 13 15  1  0
 13 40  1  1
 14 41  1  0
 15 20  1  0
 15 16  1  0
 15 42  1  1
 16 17  1  0
 16 43  1  0
 16 44  1  0
 17 18  1  0
 17 45  1  0
 17 46  1  0
 18 19  1  6
 18 20  1  0
 20 21  1  6
 21 47  1  0
 21 48  1  0
 21 49  1  0
M  END
>  <i_m_ct_stereo_status>  (281) 
1

>  <s_m_source_file>  (281) 
/var/tmp/pbs.5076255.sched01/tmpavn81tjv/78c0r2i372.sdf

>  <i_m_source_file_index>  (281) 
31

>  <i_lp_mmshare_version>  (281) 
48012

>  <i_f3d_flags>  (281) 
0

>  <s_epik_input>  (281) 
W0NIM11DKE8xKShbQ0gzXSlPW0NAQF0oW0NAXTEyMykoW0NIM10pT0MoW0NIM10pKFtDSDNdKVtDQEBIXTRbQ0BAXTMoW0NIM10pW0NAQEhdKFtDQEBIXShbQ0gyXTQpW09IXSlbQ0gyXVtDSDJdMg==

>  <s_epik_cmdline>  (281) 
J2VwaWtfcHl0aG9uJywgJy1waHQnLCAnMi4wJywgJy1waCcsICc3LjAnLCAnLXRuJywgJzgnLCAnLW1hJywgJzIwMCcsICctaW1hZScsICc8aW5maWxlLm1hZT4nLCAnLW9tYWUnLCAnPG91dGZpbGUubWFlPic=

>  <r_lp_tautomer_probability>  (281) 
1

>  <r_epik_Ionization_Penalty>  (281) 
3.71506e-07

>  <r_epik_Ionization_Penalty_Charging>  (281) 
0

>  <r_epik_Ionization_Penalty_Neutral>  (281) 
3.71506e-07

>  <r_epik_State_Penalty>  (281) 
-0

>  <r_epik_Charging_Adjusted_Penalty>  (281) 
0

>  <i_epik_Tot_Q>  (281) 
0

>  <i_epik_Tot_abs_Q>  (281) 
0

>  <s_lp_Force_Field>  (281) 
OPLS3e

>  <r_lp_Energy>  (281) 
56.6631

>  <b_lp_Chiralities_Consistent>  (281) 
1

>  <s_lp_Variant>  (281) 
80:0-1

>  <s_i_glide_gridfile>  (281) 
pfpi4k_grid

>  <i_i_glide_lignum>  (281) 
31

>  <i_i_glide_rotatable_bonds>  (281) 
1

>  <r_i_docking_score>  (281) 
-2.29377

>  <r_i_glide_ligand_efficiency>  (281) 
-0.109227

>  <r_i_glide_ligand_efficiency_sa>  (281) 
-0.301349

>  <r_i_glide_ligand_efficiency_ln>  (281) 
-0.567129

>  <r_i_glide_gscore>  (281) 
-2.29377

>  <r_i_glide_lipo>  (281) 
-0.366281

>  <r_i_glide_hbond>  (281) 
0

>  <r_i_glide_metal>  (281) 
-0

>  <r_i_glide_rewards>  (281) 
-1.42194

>  <r_i_glide_evdw>  (281) 
-8.18422

>  <r_i_glide_ecoul>  (281) 
-0.64221

>  <r_i_glide_erotb>  (281) 
0

>  <r_i_glide_esite>  (281) 
0

>  <r_i_glide_emodel>  (281) 
-9.0035

>  <r_i_glide_energy>  (281) 
-8.82643

>  <r_i_glide_einternal>  (281) 
0.3112

>  <r_i_glide_intrahb_reward>  (281) 
-0

>  <i_i_glide_confnum>  (281) 
1

>  <i_i_glide_posenum>  (281) 
31

>  <r_i_glide_eff_state_penalty>  (281) 
0

>  <ligand_id>  (281) 
80

>  <original_smiles>  (281) 
CC1(C)OC2(C)OC(C)(C)C3CC(O)C4CCC2(O1)C43C

>  <smiles>  (281) 
[H]OC1([H])C([H])([H])C2([H])C(C([H])([H])[H])(C([H])([H])[H])OC3(C([H])([H])[H])OC(C([H])([H])[H])(C([H])([H])[H])OC34C([H])([H])C([H])([H])C1([H])C24C([H])([H])[H]

$$$$
81:0:0
     RDKit          3D

 52 56  0  0  1  0  0  0  0  0999 V2000
    1.2545   -3.0298    3.9433 C   0  0  0  0  0  0  0  0  0  0  0  0
    1.8251   -1.6019    3.8496 C   0  0  2  0  0  0  0  0  0  0  0  0
    0.7815   -0.6170    3.2873 C   0  0  0  0  0  0  0  0  0  0  0  0
    1.2830    0.8465    3.2076 C   0  0  0  0  0  0  0  0  0  0  0  0
    0.2456    1.7130    2.4691 C   0  0  0  0  0  0  0  0  0  0  0  0
    1.4690    1.4562    4.6161 C   0  0  0  0  0  0  0  0  0  0  0  0
    2.6272    0.8711    2.4370 C   0  0  0  0  0  0  0  0  0  0  0  0
    3.6720   -0.0451    3.0830 C   0  0  0  0  0  0  0  0  0  0  0  0
    3.1626   -1.5044    3.0578 C   0  0  1  0  0  0  0  0  0  0  0  0
    4.1319   -2.3267    3.6846 O   0  0  0  0  0  0  0  0  0  0  0  0
    4.8637   -2.9939    2.5182 O   0  0  0  0  0  0  0  0  0  0  0  0
    4.1846   -2.5763    1.3412 C   0  0  2  0  0  0  0  0  0  0  0  0
    2.9495   -1.9808    1.7139 O   0  0  0  0  0  0  0  0  0  0  0  0
    3.9289   -3.8325    0.4386 C   0  0  1  0  0  0  0  0  0  0  0  0
    3.1800   -3.3835   -0.8428 C   0  0  0  0  0  0  0  0  0  0  0  0
    4.0269   -2.3661   -1.6313 C   0  0  2  0  0  0  0  0  0  0  0  0
    5.3872   -2.9721   -2.0242 C   0  0  0  0  0  0  0  0  0  0  0  0
    6.1290   -3.4267   -0.7506 C   0  0  2  0  0  0  0  0  0  0  0  0
    5.2792   -4.4606    0.0213 C   0  0  0  0  0  0  0  0  0  0  0  0
    6.3785   -2.1994    0.1552 C   0  0  0  0  0  0  0  0  0  0  0  0
    5.0463   -1.5596    0.5368 C   0  0  1  0  0  0  0  0  0  0  0  0
    4.2675   -1.1393   -0.7282 C   0  0  0  0  0  0  0  0  0  0  0  0
    1.0447   -3.4264    2.9516 H   0  0  0  0  0  0  0  0  0  0  0  0
    0.3212   -3.0579    4.5119 H   0  0  0  0  0  0  0  0  0  0  0  0
    1.9500   -3.7076    4.4364 H   0  0  0  0  0  0  0  0  0  0  0  0
    2.0382   -1.3177    4.8748 H   0  0  0  0  0  0  0  0  0  0  0  0
    0.5245   -0.9541    2.2795 H   0  0  0  0  0  0  0  0  0  0  0  0
   -0.1416   -0.6568    3.8678 H   0  0  0  0  0  0  0  0  0  0  0  0
    0.6264    2.7236    2.3331 H   0  0  0  0  0  0  0  0  0  0  0  0
   -0.6860    1.7962    3.0289 H   0  0  0  0  0  0  0  0  0  0  0  0
    0.0027    1.3249    1.4789 H   0  0  0  0  0  0  0  0  0  0  0  0
    1.8155    2.4896    4.5549 H   0  0  0  0  0  0  0  0  0  0  0  0
    2.1941    0.9246    5.2249 H   0  0  0  0  0  0  0  0  0  0  0  0
    0.5411    1.4399    5.1842 H   0  0  0  0  0  0  0  0  0  0  0  0
    2.4489    0.5665    1.4002 H   0  0  0  0  0  0  0  0  0  0  0  0
    3.0126    1.8877    2.3828 H   0  0  0  0  0  0  0  0  0  0  0  0
    4.6425    0.1130    2.6509 H   0  0  0  0  0  0  0  0  0  0  0  0
    3.8166    0.2225    4.1244 H   0  0  0  0  0  0  0  0  0  0  0  0
    3.3332   -4.5850    0.9696 H   0  0  0  0  0  0  0  0  0  0  0  0
    2.9662   -4.2310   -1.5007 H   0  0  0  0  0  0  0  0  0  0  0  0
    2.2115   -2.9437   -0.5891 H   0  0  0  0  0  0  0  0  0  0  0  0
    3.4895   -2.0547   -2.5268 H   0  0  0  0  0  0  0  0  0  0  0  0
    5.2599   -3.8152   -2.7041 H   0  0  0  0  0  0  0  0  0  0  0  0
    5.9858   -2.2347   -2.5545 H   0  0  0  0  0  0  0  0  0  0  0  0
    7.0975   -3.8570   -1.0225 H   0  0  0  0  0  0  0  0  0  0  0  0
    5.8305   -4.8055    0.8959 H   0  0  0  0  0  0  0  0  0  0  0  0
    5.1200   -5.3354   -0.6152 H   0  0  0  0  0  0  0  0  0  0  0  0
    6.9164   -2.4984    1.0538 H   0  0  0  0  0  0  0  0  0  0  0  0
    6.9956   -1.4621   -0.3535 H   0  0  0  0  0  0  0  0  0  0  0  0
    5.3205   -0.6556    1.0550 H   0  0  0  0  0  0  0  0  0  0  0  0
    4.8159   -0.3682   -1.2722 H   0  0  0  0  0  0  0  0  0  0  0  0
    3.3004   -0.6977   -0.4624 H   0  0  0  0  0  0  0  0  0  0  0  0
  1  2  1  0
  1 23  1  0
  1 24  1  0
  1 25  1  0
  2  9  1  0
  2  3  1  0
  2 26  1  1
  3  4  1  0
  3 27  1  0
  3 28  1  0
  4  5  1  0
  4  6  1  0
  4  7  1  0
  5 29  1  0
  5 30  1  0
  5 31  1  0
  6 32  1  0
  6 33  1  0
  6 34  1  0
  7  8  1  0
  7 35  1  0
  7 36  1  0
  8  9  1  0
  8 37  1  0
  8 38  1  0
  9 13  1  6
  9 10  1  0
 10 11  1  0
 12 11  1  1
 12 21  1  0
 12 13  1  0
 12 14  1  0
 14 19  1  0
 14 15  1  0
 14 39  1  1
 15 16  1  0
 15 40  1  0
 15 41  1  0
 16 22  1  0
 16 17  1  0
 16 42  1  6
 17 18  1  0
 17 43  1  0
 17 44  1  0
 18 19  1  0
 18 20  1  0
 18 45  1  6
 19 46  1  0
 19 47  1  0
 20 21  1  0
 20 48  1  0
 20 49  1  0
 21 22  1  0
 21 50  1  1
 22 51  1  0
 22 52  1  0
M  END
>  <i_m_ct_stereo_status>  (282) 
1

>  <s_m_source_file>  (282) 
/var/tmp/pbs.5076255.sched01/tmpavn81tjv/78c0r2i372.sdf

>  <i_m_source_file_index>  (282) 
32

>  <i_lp_mmshare_version>  (282) 
48012

>  <i_f3d_flags>  (282) 
0

>  <s_epik_input>  (282) 
W0NIMl0xW0NIMl1DKFtDSDNdKShbQ0gzXSlbQ0gyXVtDQEBIXShbQ0gzXSlbQ0BdMTJPT1tDQEBdMyhPMilbQ0BIXTRbQ0gyXVtDQEBIXTVbQ0gyXVtDQEhdKFtDSDJdNClbQ0gyXVtDQEhdM1tDSDJdNQ==

>  <s_epik_cmdline>  (282) 
J2VwaWtfcHl0aG9uJywgJy1waHQnLCAnMi4wJywgJy1waCcsICc3LjAnLCAnLXRuJywgJzgnLCAnLW1hJywgJzIwMCcsICctaW1hZScsICc8aW5maWxlLm1hZT4nLCAnLW9tYWUnLCAnPG91dGZpbGUubWFlPic=

>  <r_lp_tautomer_probability>  (282) 
1

>  <r_epik_Ionization_Penalty>  (282) 
1.84182e-15

>  <r_epik_Ionization_Penalty_Charging>  (282) 
0

>  <r_epik_Ionization_Penalty_Neutral>  (282) 
1.84182e-15

>  <r_epik_State_Penalty>  (282) 
-0

>  <r_epik_Charging_Adjusted_Penalty>  (282) 
0

>  <i_epik_Tot_Q>  (282) 
0

>  <i_epik_Tot_abs_Q>  (282) 
0

>  <s_lp_Force_Field>  (282) 
OPLS3e

>  <r_lp_Energy>  (282) 
10.9064

>  <b_lp_Chiralities_Consistent>  (282) 
1

>  <s_lp_Variant>  (282) 
81:0-1

>  <s_i_glide_gridfile>  (282) 
pfpi4k_grid

>  <i_i_glide_lignum>  (282) 
32

>  <i_i_glide_rotatable_bonds>  (282) 
0

>  <r_i_docking_score>  (282) 
-3.10812

>  <r_i_glide_ligand_efficiency>  (282) 
-0.141278

>  <r_i_glide_ligand_efficiency_sa>  (282) 
-0.395868

>  <r_i_glide_ligand_efficiency_ln>  (282) 
-0.759739

>  <r_i_glide_gscore>  (282) 
-3.10812

>  <r_i_glide_lipo>  (282) 
-0.485797

>  <r_i_glide_hbond>  (282) 
0

>  <r_i_glide_metal>  (282) 
-0

>  <r_i_glide_rewards>  (282) 
-1.32487

>  <r_i_glide_evdw>  (282) 
-25.2955

>  <r_i_glide_ecoul>  (282) 
-0.21118

>  <r_i_glide_erotb>  (282) 
0

>  <r_i_glide_esite>  (282) 
-0.00100647

>  <r_i_glide_emodel>  (282) 
-29.6129

>  <r_i_glide_energy>  (282) 
-25.5067

>  <r_i_glide_einternal>  (282) 
0

>  <r_i_glide_intrahb_reward>  (282) 
-0

>  <i_i_glide_confnum>  (282) 
4

>  <i_i_glide_posenum>  (282) 
2

>  <r_i_glide_eff_state_penalty>  (282) 
0

>  <ligand_id>  (282) 
81

>  <original_smiles>  (282) 
CC1CC(C)(C)CCC12OOC1(O2)C2CC3CC(C2)CC1C3

>  <smiles>  (282) 
[H]C([H])([H])C1([H])C([H])([H])C(C([H])([H])[H])(C([H])([H])[H])C([H])([H])C([H])([H])C12OOC1(O2)C2([H])C([H])([H])C3([H])C([H])([H])C([H])(C2([H])[H])C([H])([H])C1([H])C3([H])[H]

$$$$
81:0:1
     RDKit          3D

 52 56  0  0  1  0  0  0  0  0999 V2000
    6.3383   -6.4385    1.2842 C   0  0  0  0  0  0  0  0  0  0  0  0
    5.1638   -6.7140    2.2151 C   0  0  2  0  0  0  0  0  0  0  0  0
    4.3652   -7.9031    1.6520 C   0  0  0  0  0  0  0  0  0  0  0  0
    3.2440   -8.3787    2.6037 C   0  0  0  0  0  0  0  0  0  0  0  0
    2.4305   -9.4869    1.9147 C   0  0  0  0  0  0  0  0  0  0  0  0
    3.8538   -8.9850    3.8908 C   0  0  0  0  0  0  0  0  0  0  0  0
    2.3237   -7.1709    2.9266 C   0  0  0  0  0  0  0  0  0  0  0  0
    3.0881   -5.9421    3.4550 C   0  0  0  0  0  0  0  0  0  0  0  0
    4.2211   -5.5115    2.5018 C   0  0  1  0  0  0  0  0  0  0  0  0
    4.9409   -4.4759    3.1790 O   0  0  0  0  0  0  0  0  0  0  0  0
    4.4382   -3.2162    2.5264 O   0  0  0  0  0  0  0  0  0  0  0  0
    4.2020   -3.6126    1.1971 C   0  0  2  0  0  0  0  0  0  0  0  0
    3.6764   -4.9424    1.2668 O   0  0  0  0  0  0  0  0  0  0  0  0
    5.5597   -3.5641    0.4153 C   0  0  1  0  0  0  0  0  0  0  0  0
    5.2763   -3.9677   -1.0822 C   0  0  0  0  0  0  0  0  0  0  0  0
    4.2976   -2.9911   -1.7613 C   0  0  2  0  0  0  0  0  0  0  0  0
    4.8634   -1.5554   -1.7218 C   0  0  0  0  0  0  0  0  0  0  0  0
    5.0947   -1.1466   -0.2498 C   0  0  2  0  0  0  0  0  0  0  0  0
    6.0908   -2.1130    0.4081 C   0  0  0  0  0  0  0  0  0  0  0  0
    3.7471   -1.2109    0.5246 C   0  0  0  0  0  0  0  0  0  0  0  0
    3.1887   -2.6442    0.5068 C   0  0  1  0  0  0  0  0  0  0  0  0
    2.9650   -3.0530   -0.9921 C   0  0  0  0  0  0  0  0  0  0  0  0
    5.9425   -6.0443    0.3424 H   0  0  0  0  0  0  0  0  0  0  0  0
    6.9526   -7.3124    1.0667 H   0  0  0  0  0  0  0  0  0  0  0  0
    6.9681   -5.6637    1.7311 H   0  0  0  0  0  0  0  0  0  0  0  0
    5.6062   -7.0133    3.1608 H   0  0  0  0  0  0  0  0  0  0  0  0
    3.9233   -7.6061    0.6964 H   0  0  0  0  0  0  0  0  0  0  0  0
    5.0344   -8.7362    1.4289 H   0  0  0  0  0  0  0  0  0  0  0  0
    1.5922   -9.8057    2.5314 H   0  0  0  0  0  0  0  0  0  0  0  0
    3.0474  -10.3633    1.7314 H   0  0  0  0  0  0  0  0  0  0  0  0
    2.0348   -9.1672    0.9533 H   0  0  0  0  0  0  0  0  0  0  0  0
    3.0825   -9.3661    4.5547 H   0  0  0  0  0  0  0  0  0  0  0  0
    4.4353   -8.2706    4.4709 H   0  0  0  0  0  0  0  0  0  0  0  0
    4.5263   -9.8082    3.6549 H   0  0  0  0  0  0  0  0  0  0  0  0
    1.7789   -6.8722    2.0230 H   0  0  0  0  0  0  0  0  0  0  0  0
    1.5609   -7.4791    3.6532 H   0  0  0  0  0  0  0  0  0  0  0  0
    2.3980   -5.1263    3.6736 H   0  0  0  0  0  0  0  0  0  0  0  0
    3.5279   -6.1962    4.4066 H   0  0  0  0  0  0  0  0  0  0  0  0
    6.3461   -4.1004    0.8285 H   0  0  0  0  0  0  0  0  0  0  0  0
    6.2079   -3.9715   -1.6475 H   0  0  0  0  0  0  0  0  0  0  0  0
    4.8394   -4.9523   -1.1480 H   0  0  0  0  0  0  0  0  0  0  0  0
    4.1379   -3.2909   -2.7996 H   0  0  0  0  0  0  0  0  0  0  0  0
    5.8061   -1.5211   -2.2703 H   0  0  0  0  0  0  0  0  0  0  0  0
    4.1829   -0.8578   -2.2089 H   0  0  0  0  0  0  0  0  0  0  0  0
    5.5060   -0.1349   -0.2012 H   0  0  0  0  0  0  0  0  0  0  0  0
    6.2834   -1.7994    1.4309 H   0  0  0  0  0  0  0  0  0  0  0  0
    7.0378   -2.0822   -0.1187 H   0  0  0  0  0  0  0  0  0  0  0  0
    3.9114   -0.8880    1.5608 H   0  0  0  0  0  0  0  0  0  0  0  0
    3.0285   -0.5107    0.0829 H   0  0  0  0  0  0  0  0  0  0  0  0
    2.2148   -2.6765    1.0204 H   0  0  0  0  0  0  0  0  0  0  0  0
    2.2459   -2.3941   -1.4825 H   0  0  0  0  0  0  0  0  0  0  0  0
    2.5425   -4.0614   -1.0614 H   0  0  0  0  0  0  0  0  0  0  0  0
  1  2  1  0
  1 23  1  0
  1 24  1  0
  1 25  1  0
  2  9  1  0
  2  3  1  0
  2 26  1  1
  3  4  1  0
  3 27  1  0
  3 28  1  0
  4  5  1  0
  4  6  1  0
  4  7  1  0
  5 29  1  0
  5 30  1  0
  5 31  1  0
  6 32  1  0
  6 33  1  0
  6 34  1  0
  7  8  1  0
  7 35  1  0
  7 36  1  0
  8  9  1  0
  8 37  1  0
  8 38  1  0
  9 13  1  6
  9 10  1  0
 10 11  1  0
 12 11  1  1
 12 21  1  0
 12 13  1  0
 12 14  1  0
 14 19  1  0
 14 15  1  0
 14 39  1  1
 15 16  1  0
 15 40  1  0
 15 41  1  0
 16 22  1  0
 16 17  1  0
 16 42  1  6
 17 18  1  0
 17 43  1  0
 17 44  1  0
 18 19  1  0
 18 20  1  0
 18 45  1  6
 19 46  1  0
 19 47  1  0
 20 21  1  0
 20 48  1  0
 20 49  1  0
 21 22  1  0
 21 50  1  1
 22 51  1  0
 22 52  1  0
M  END
>  <i_m_ct_stereo_status>  (283) 
1

>  <s_m_source_file>  (283) 
/var/tmp/pbs.5076255.sched01/tmpavn81tjv/78c0r2i372.sdf

>  <i_m_source_file_index>  (283) 
32

>  <i_lp_mmshare_version>  (283) 
48012

>  <i_f3d_flags>  (283) 
0

>  <s_epik_input>  (283) 
W0NIMl0xW0NIMl1DKFtDSDNdKShbQ0gzXSlbQ0gyXVtDQEBIXShbQ0gzXSlbQ0BdMTJPT1tDQEBdMyhPMilbQ0BIXTRbQ0gyXVtDQEBIXTVbQ0gyXVtDQEhdKFtDSDJdNClbQ0gyXVtDQEhdM1tDSDJdNQ==

>  <s_epik_cmdline>  (283) 
J2VwaWtfcHl0aG9uJywgJy1waHQnLCAnMi4wJywgJy1waCcsICc3LjAnLCAnLXRuJywgJzgnLCAnLW1hJywgJzIwMCcsICctaW1hZScsICc8aW5maWxlLm1hZT4nLCAnLW9tYWUnLCAnPG91dGZpbGUubWFlPic=

>  <r_lp_tautomer_probability>  (283) 
1

>  <r_epik_Ionization_Penalty>  (283) 
1.84182e-15

>  <r_epik_Ionization_Penalty_Charging>  (283) 
0

>  <r_epik_Ionization_Penalty_Neutral>  (283) 
1.84182e-15

>  <r_epik_State_Penalty>  (283) 
-0

>  <r_epik_Charging_Adjusted_Penalty>  (283) 
0

>  <i_epik_Tot_Q>  (283) 
0

>  <i_epik_Tot_abs_Q>  (283) 
0

>  <s_lp_Force_Field>  (283) 
OPLS3e

>  <r_lp_Energy>  (283) 
10.9064

>  <b_lp_Chiralities_Consistent>  (283) 
1

>  <s_lp_Variant>  (283) 
81:0-1

>  <s_i_glide_gridfile>  (283) 
pfpi4k_grid

>  <i_i_glide_lignum>  (283) 
32

>  <i_i_glide_rotatable_bonds>  (283) 
0

>  <r_i_docking_score>  (283) 
-2.87298

>  <r_i_glide_ligand_efficiency>  (283) 
-0.13059

>  <r_i_glide_ligand_efficiency_sa>  (283) 
-0.365919

>  <r_i_glide_ligand_efficiency_ln>  (283) 
-0.702262

>  <r_i_glide_gscore>  (283) 
-2.87298

>  <r_i_glide_lipo>  (283) 
-0.287502

>  <r_i_glide_hbond>  (283) 
0

>  <r_i_glide_metal>  (283) 
-0

>  <r_i_glide_rewards>  (283) 
-1.34009

>  <r_i_glide_evdw>  (283) 
-23.2747

>  <r_i_glide_ecoul>  (283) 
-0.544379

>  <r_i_glide_erotb>  (283) 
0

>  <r_i_glide_esite>  (283) 
0

>  <r_i_glide_emodel>  (283) 
-26.7266

>  <r_i_glide_energy>  (283) 
-23.8191

>  <r_i_glide_einternal>  (283) 
0

>  <r_i_glide_intrahb_reward>  (283) 
-0

>  <i_i_glide_confnum>  (283) 
5

>  <i_i_glide_posenum>  (283) 
19

>  <r_i_glide_eff_state_penalty>  (283) 
0

>  <ligand_id>  (283) 
81

>  <original_smiles>  (283) 
CC1CC(C)(C)CCC12OOC1(O2)C2CC3CC(C2)CC1C3

>  <smiles>  (283) 
[H]C([H])([H])C1([H])C([H])([H])C(C([H])([H])[H])(C([H])([H])[H])C([H])([H])C([H])([H])C12OOC1(O2)C2([H])C([H])([H])C3([H])C([H])([H])C([H])(C2([H])[H])C([H])([H])C1([H])C3([H])[H]

$$$$
81:0:2
     RDKit          3D

 52 56  0  0  1  0  0  0  0  0999 V2000
    4.8346   -0.5174    1.2350 C   0  0  0  0  0  0  0  0  0  0  0  0
    4.9852   -1.5538    0.0907 C   0  0  2  0  0  0  0  0  0  0  0  0
    3.8145   -1.4403   -0.9091 C   0  0  0  0  0  0  0  0  0  0  0  0
    3.8943   -2.4121   -2.1142 C   0  0  0  0  0  0  0  0  0  0  0  0
    2.5845   -2.3899   -2.9312 C   0  0  0  0  0  0  0  0  0  0  0  0
    4.9943   -1.9980   -3.0900 C   0  0  0  0  0  0  0  0  0  0  0  0
    4.1787   -3.8254   -1.5729 C   0  0  0  0  0  0  0  0  0  0  0  0
    5.4254   -3.9004   -0.6968 C   0  0  0  0  0  0  0  0  0  0  0  0
    5.1776   -3.0264    0.5366 C   0  0  1  0  0  0  0  0  0  0  0  0
    6.3394   -3.0927    1.3376 O   0  0  0  0  0  0  0  0  0  0  0  0
    5.9646   -4.0449    2.4500 O   0  0  0  0  0  0  0  0  0  0  0  0
    4.5890   -4.3377    2.2740 C   0  0  2  0  0  0  0  0  0  0  0  0
    4.0580   -3.4571    1.3044 O   0  0  0  0  0  0  0  0  0  0  0  0
    3.8827   -4.1483    3.6549 C   0  0  1  0  0  0  0  0  0  0  0  0
    2.3656   -4.4574    3.5016 C   0  0  0  0  0  0  0  0  0  0  0  0
    2.1893   -5.9070    2.9911 C   0  0  2  0  0  0  0  0  0  0  0  0
    2.7873   -6.9092    3.9905 C   0  0  0  0  0  0  0  0  0  0  0  0
    4.2846   -6.5902    4.1785 C   0  0  2  0  0  0  0  0  0  0  0  0
    4.4615   -5.1390    4.6988 C   0  0  0  0  0  0  0  0  0  0  0  0
    5.0131   -6.7506    2.8280 C   0  0  0  0  0  0  0  0  0  0  0  0
    4.4184   -5.7993    1.7922 C   0  0  1  0  0  0  0  0  0  0  0  0
    2.9053   -6.0585    1.6343 C   0  0  0  0  0  0  0  0  0  0  0  0
    3.9785   -0.7357    1.8667 H   0  0  0  0  0  0  0  0  0  0  0  0
    4.6968    0.4947    0.8596 H   0  0  0  0  0  0  0  0  0  0  0  0
    5.7170   -0.4851    1.8740 H   0  0  0  0  0  0  0  0  0  0  0  0
    5.8828   -1.2535   -0.4233 H   0  0  0  0  0  0  0  0  0  0  0  0
    2.9005   -1.6485   -0.3381 H   0  0  0  0  0  0  0  0  0  0  0  0
    3.7768   -0.4291   -1.2936 H   0  0  0  0  0  0  0  0  0  0  0  0
    2.5927   -3.1197   -3.7412 H   0  0  0  0  0  0  0  0  0  0  0  0
    2.4256   -1.4184   -3.3878 H   0  0  0  0  0  0  0  0  0  0  0  0
    1.7165   -2.6133   -2.3200 H   0  0  0  0  0  0  0  0  0  0  0  0
    5.0246   -2.6829   -3.9381 H   0  0  0  0  0  0  0  0  0  0  0  0
    5.9663   -2.0043   -2.6136 H   0  0  0  0  0  0  0  0  0  0  0  0
    4.8351   -0.9872   -3.4602 H   0  0  0  0  0  0  0  0  0  0  0  0
    3.2893   -4.1654   -1.0285 H   0  0  0  0  0  0  0  0  0  0  0  0
    4.3259   -4.4704   -2.4341 H   0  0  0  0  0  0  0  0  0  0  0  0
    5.6791   -4.9405   -0.5076 H   0  0  0  0  0  0  0  0  0  0  0  0
    6.2679   -3.4652   -1.2193 H   0  0  0  0  0  0  0  0  0  0  0  0
    4.0131   -3.1209    4.0437 H   0  0  0  0  0  0  0  0  0  0  0  0
    1.8493   -4.3495    4.4550 H   0  0  0  0  0  0  0  0  0  0  0  0
    1.9004   -3.7529    2.7981 H   0  0  0  0  0  0  0  0  0  0  0  0
    1.1271   -6.1205    2.8664 H   0  0  0  0  0  0  0  0  0  0  0  0
    2.2752   -6.8799    4.9439 H   0  0  0  0  0  0  0  0  0  0  0  0
    2.6823   -7.9226    3.5991 H   0  0  0  0  0  0  0  0  0  0  0  0
    4.7137   -7.2923    4.9043 H   0  0  0  0  0  0  0  0  0  0  0  0
    5.5263   -4.9419    4.8632 H   0  0  0  0  0  0  0  0  0  0  0  0
    3.9589   -5.0384    5.6591 H   0  0  0  0  0  0  0  0  0  0  0  0
    6.0769   -6.5410    2.9597 H   0  0  0  0  0  0  0  0  0  0  0  0
    4.9231   -7.7812    2.4673 H   0  0  0  0  0  0  0  0  0  0  0  0
    4.9033   -6.0641    0.8570 H   0  0  0  0  0  0  0  0  0  0  0  0
    2.7398   -7.0632    1.2299 H   0  0  0  0  0  0  0  0  0  0  0  0
    2.4646   -5.3602    0.9174 H   0  0  0  0  0  0  0  0  0  0  0  0
  1  2  1  0
  1 23  1  0
  1 24  1  0
  1 25  1  0
  2  9  1  0
  2  3  1  0
  2 26  1  6
  3  4  1  0
  3 27  1  0
  3 28  1  0
  4  5  1  0
  4  6  1  0
  4  7  1  0
  5 29  1  0
  5 30  1  0
  5 31  1  0
  6 32  1  0
  6 33  1  0
  6 34  1  0
  7  8  1  0
  7 35  1  0
  7 36  1  0
  8  9  1  0
  8 37  1  0
  8 38  1  0
  9 13  1  1
  9 10  1  0
 10 11  1  0
 12 11  1  1
 12 21  1  0
 12 13  1  0
 12 14  1  0
 14 19  1  0
 14 15  1  0
 14 39  1  1
 15 16  1  0
 15 40  1  0
 15 41  1  0
 16 22  1  0
 16 17  1  0
 16 42  1  6
 17 18  1  0
 17 43  1  0
 17 44  1  0
 18 19  1  0
 18 20  1  0
 18 45  1  1
 19 46  1  0
 19 47  1  0
 20 21  1  0
 20 48  1  0
 20 49  1  0
 21 22  1  0
 21 50  1  6
 22 51  1  0
 22 52  1  0
M  END
>  <i_m_ct_stereo_status>  (284) 
1

>  <s_m_source_file>  (284) 
/var/tmp/pbs.5076255.sched01/tmpavn81tjv/78c0r2i372.sdf

>  <i_m_source_file_index>  (284) 
32

>  <i_lp_mmshare_version>  (284) 
48012

>  <i_f3d_flags>  (284) 
0

>  <s_epik_input>  (284) 
W0NIMl0xW0NIMl1DKFtDSDNdKShbQ0gzXSlbQ0gyXVtDQEBIXShbQ0gzXSlbQ0BdMTJPT1tDQEBdMyhPMilbQ0BIXTRbQ0gyXVtDQEBIXTVbQ0gyXVtDQEhdKFtDSDJdNClbQ0gyXVtDQEhdM1tDSDJdNQ==

>  <s_epik_cmdline>  (284) 
J2VwaWtfcHl0aG9uJywgJy1waHQnLCAnMi4wJywgJy1waCcsICc3LjAnLCAnLXRuJywgJzgnLCAnLW1hJywgJzIwMCcsICctaW1hZScsICc8aW5maWxlLm1hZT4nLCAnLW9tYWUnLCAnPG91dGZpbGUubWFlPic=

>  <r_lp_tautomer_probability>  (284) 
1

>  <r_epik_Ionization_Penalty>  (284) 
1.84182e-15

>  <r_epik_Ionization_Penalty_Charging>  (284) 
0

>  <r_epik_Ionization_Penalty_Neutral>  (284) 
1.84182e-15

>  <r_epik_State_Penalty>  (284) 
-0

>  <r_epik_Charging_Adjusted_Penalty>  (284) 
0

>  <i_epik_Tot_Q>  (284) 
0

>  <i_epik_Tot_abs_Q>  (284) 
0

>  <s_lp_Force_Field>  (284) 
OPLS3e

>  <r_lp_Energy>  (284) 
10.9064

>  <b_lp_Chiralities_Consistent>  (284) 
1

>  <s_lp_Variant>  (284) 
81:0-1

>  <s_i_glide_gridfile>  (284) 
pfpi4k_grid

>  <i_i_glide_lignum>  (284) 
32

>  <i_i_glide_rotatable_bonds>  (284) 
0

>  <r_i_docking_score>  (284) 
-2.54859

>  <r_i_glide_ligand_efficiency>  (284) 
-0.115845

>  <r_i_glide_ligand_efficiency_sa>  (284) 
-0.324603

>  <r_i_glide_ligand_efficiency_ln>  (284) 
-0.622969

>  <r_i_glide_gscore>  (284) 
-2.54859

>  <r_i_glide_lipo>  (284) 
-0.255539

>  <r_i_glide_hbond>  (284) 
0

>  <r_i_glide_metal>  (284) 
-0

>  <r_i_glide_rewards>  (284) 
-1.3861

>  <r_i_glide_evdw>  (284) 
-17.6694

>  <r_i_glide_ecoul>  (284) 
-0.15659

>  <r_i_glide_erotb>  (284) 
0

>  <r_i_glide_esite>  (284) 
0

>  <r_i_glide_emodel>  (284) 
-20.913

>  <r_i_glide_energy>  (284) 
-17.826

>  <r_i_glide_einternal>  (284) 
0

>  <r_i_glide_intrahb_reward>  (284) 
-0

>  <i_i_glide_confnum>  (284) 
4

>  <i_i_glide_posenum>  (284) 
27

>  <r_i_glide_eff_state_penalty>  (284) 
0

>  <ligand_id>  (284) 
81

>  <original_smiles>  (284) 
CC1CC(C)(C)CCC12OOC1(O2)C2CC3CC(C2)CC1C3

>  <smiles>  (284) 
[H]C([H])([H])C1([H])C([H])([H])C(C([H])([H])[H])(C([H])([H])[H])C([H])([H])C([H])([H])C12OOC1(O2)C2([H])C([H])([H])C3([H])C([H])([H])C([H])(C2([H])[H])C([H])([H])C1([H])C3([H])[H]

$$$$
83:0:0
     RDKit          3D

 15 16  0  0  1  0  0  0  0  0999 V2000
    2.5608   -2.6229   -3.3276 C   0  0  0  0  0  0  0  0  0  0  0  0
    3.7456   -2.9807   -2.4566 C   0  0  0  0  0  0  0  0  0  0  0  0
    4.9554   -2.7636   -3.0005 N   0  0  0  0  0  0  0  0  0  0  0  0
    6.0370   -3.0676   -2.2513 C   0  0  0  0  0  0  0  0  0  0  0  0
    6.0398   -3.6003   -0.9392 C   0  0  0  0  0  0  0  0  0  0  0  0
    4.7560   -3.8120   -0.4424 N   0  0  0  0  0  0  0  0  0  0  0  0
    4.4663   -4.3249    0.7718 N   0  0  0  0  0  0  0  0  0  0  0  0
    3.1695   -4.3341    0.8048 N   0  0  0  0  0  0  0  0  0  0  0  0
    2.5848   -3.8449   -0.3588 N   0  0  0  0  0  0  0  0  0  0  0  0
    3.5964   -3.5106   -1.1554 C   0  0  0  0  0  0  0  0  0  0  0  0
    1.6159   -2.8224   -2.8203 H   0  0  0  0  0  0  0  0  0  0  0  0
    2.5807   -3.2004   -4.2540 H   0  0  0  0  0  0  0  0  0  0  0  0
    2.5997   -1.5619   -3.5818 H   0  0  0  0  0  0  0  0  0  0  0  0
    6.9881   -2.8951   -2.7296 H   0  0  0  0  0  0  0  0  0  0  0  0
    6.9094   -3.8647   -0.3553 H   0  0  0  0  0  0  0  0  0  0  0  0
  1  2  1  0
  1 11  1  0
  1 12  1  0
  1 13  1  0
  2 10  1  0
  2  3  2  0
  3  4  1  0
  4  5  2  0
  4 14  1  0
  5  6  1  0
  5 15  1  0
  6 10  1  0
  6  7  1  0
  7  8  2  0
  8  9  1  0
  9 10  2  0
M  END
>  <i_m_ct_stereo_status>  (285) 
1

>  <s_m_source_file>  (285) 
/var/tmp/pbs.5076255.sched01/tmpavn81tjv/78c0r2i372.sdf

>  <i_m_source_file_index>  (285) 
34

>  <i_lp_mmshare_version>  (285) 
48012

>  <i_f3d_flags>  (285) 
0

>  <s_epik_input>  (285) 
W2NIXTFbY0hdbmMoW0NIM10pYyhuMTIpbm5uMg==

>  <s_epik_cmdline>  (285) 
J2VwaWtfcHl0aG9uJywgJy1waHQnLCAnMi4wJywgJy1waCcsICc3LjAnLCAnLXRuJywgJzgnLCAnLW1hJywgJzIwMCcsICctaW1hZScsICc8aW5maWxlLm1hZT4nLCAnLW9tYWUnLCAnPG91dGZpbGUubWFlPic=

>  <r_lp_tautomer_probability>  (285) 
1

>  <r_epik_Ionization_Penalty>  (285) 
8.85187e-09

>  <r_epik_Ionization_Penalty_Charging>  (285) 
0

>  <r_epik_Ionization_Penalty_Neutral>  (285) 
8.85187e-09

>  <r_epik_State_Penalty>  (285) 
-0

>  <r_epik_Charging_Adjusted_Penalty>  (285) 
0

>  <i_epik_Tot_Q>  (285) 
0

>  <i_epik_Tot_abs_Q>  (285) 
0

>  <s_lp_Force_Field>  (285) 
OPLS3e

>  <r_lp_Energy>  (285) 
9.72958

>  <b_lp_Chiralities_Consistent>  (285) 
1

>  <s_lp_Variant>  (285) 
83:0-1

>  <s_i_glide_gridfile>  (285) 
pfpi4k_grid

>  <i_i_glide_lignum>  (285) 
34

>  <i_i_glide_rotatable_bonds>  (285) 
0

>  <r_i_docking_score>  (285) 
-3.77331

>  <r_i_glide_ligand_efficiency>  (285) 
-0.377331

>  <r_i_glide_ligand_efficiency_sa>  (285) 
-0.812936

>  <r_i_glide_ligand_efficiency_ln>  (285) 
-1.14253

>  <r_i_glide_gscore>  (285) 
-3.77331

>  <r_i_glide_lipo>  (285) 
-0.417438

>  <r_i_glide_hbond>  (285) 
0

>  <r_i_glide_metal>  (285) 
-0

>  <r_i_glide_rewards>  (285) 
-2.32147

>  <r_i_glide_evdw>  (285) 
-15.6829

>  <r_i_glide_ecoul>  (285) 
-1.3458

>  <r_i_glide_erotb>  (285) 
0

>  <r_i_glide_esite>  (285) 
-0.0483867

>  <r_i_glide_emodel>  (285) 
-22.0859

>  <r_i_glide_energy>  (285) 
-17.0287

>  <r_i_glide_einternal>  (285) 
0

>  <r_i_glide_intrahb_reward>  (285) 
-0

>  <i_i_glide_confnum>  (285) 
2

>  <i_i_glide_posenum>  (285) 
35

>  <r_i_glide_eff_state_penalty>  (285) 
0

>  <ligand_id>  (285) 
83

>  <original_smiles>  (285) 
Cc1nccn2nnnc12

>  <smiles>  (285) 
[H]c1nc(C([H])([H])[H])c2nnnn2c1[H]

$$$$
83:0:1
     RDKit          3D

 15 16  0  0  1  0  0  0  0  0999 V2000
   -2.7625    3.0349    6.4889 C   0  0  0  0  0  0  0  0  0  0  0  0
   -2.0988    2.4638    5.2559 C   0  0  0  0  0  0  0  0  0  0  0  0
   -2.0202    3.2868    4.1993 N   0  0  0  0  0  0  0  0  0  0  0  0
   -1.4385    2.8034    3.0792 C   0  0  0  0  0  0  0  0  0  0  0  0
   -0.8964    1.5075    2.8891 C   0  0  0  0  0  0  0  0  0  0  0  0
   -1.0152    0.7062    4.0263 N   0  0  0  0  0  0  0  0  0  0  0  0
   -0.5893   -0.5707    4.1359 N   0  0  0  0  0  0  0  0  0  0  0  0
   -0.9252   -0.9119    5.3438 N   0  0  0  0  0  0  0  0  0  0  0  0
   -1.5552    0.1090    6.0520 N   0  0  0  0  0  0  0  0  0  0  0  0
   -1.6073    1.1404    5.2124 C   0  0  0  0  0  0  0  0  0  0  0  0
   -2.8004    2.3117    7.3046 H   0  0  0  0  0  0  0  0  0  0  0  0
   -3.7825    3.3363    6.2482 H   0  0  0  0  0  0  0  0  0  0  0  0
   -2.2135    3.9121    6.8347 H   0  0  0  0  0  0  0  0  0  0  0  0
   -1.3885    3.5037    2.2600 H   0  0  0  0  0  0  0  0  0  0  0  0
   -0.4335    1.1371    1.9846 H   0  0  0  0  0  0  0  0  0  0  0  0
  1  2  1  0
  1 11  1  0
  1 12  1  0
  1 13  1  0
  2 10  1  0
  2  3  2  0
  3  4  1  0
  4  5  2  0
  4 14  1  0
  5  6  1  0
  5 15  1  0
  6 10  1  0
  6  7  1  0
  7  8  2  0
  8  9  1  0
  9 10  2  0
M  END
>  <i_m_ct_stereo_status>  (286) 
1

>  <s_m_source_file>  (286) 
/var/tmp/pbs.5076255.sched01/tmpavn81tjv/78c0r2i372.sdf

>  <i_m_source_file_index>  (286) 
34

>  <i_lp_mmshare_version>  (286) 
48012

>  <i_f3d_flags>  (286) 
0

>  <s_epik_input>  (286) 
W2NIXTFbY0hdbmMoW0NIM10pYyhuMTIpbm5uMg==

>  <s_epik_cmdline>  (286) 
J2VwaWtfcHl0aG9uJywgJy1waHQnLCAnMi4wJywgJy1waCcsICc3LjAnLCAnLXRuJywgJzgnLCAnLW1hJywgJzIwMCcsICctaW1hZScsICc8aW5maWxlLm1hZT4nLCAnLW9tYWUnLCAnPG91dGZpbGUubWFlPic=

>  <r_lp_tautomer_probability>  (286) 
1

>  <r_epik_Ionization_Penalty>  (286) 
8.85187e-09

>  <r_epik_Ionization_Penalty_Charging>  (286) 
0

>  <r_epik_Ionization_Penalty_Neutral>  (286) 
8.85187e-09

>  <r_epik_State_Penalty>  (286) 
-0

>  <r_epik_Charging_Adjusted_Penalty>  (286) 
0

>  <i_epik_Tot_Q>  (286) 
0

>  <i_epik_Tot_abs_Q>  (286) 
0

>  <s_lp_Force_Field>  (286) 
OPLS3e

>  <r_lp_Energy>  (286) 
9.72958

>  <b_lp_Chiralities_Consistent>  (286) 
1

>  <s_lp_Variant>  (286) 
83:0-1

>  <s_i_glide_gridfile>  (286) 
pfpi4k_grid

>  <i_i_glide_lignum>  (286) 
34

>  <i_i_glide_rotatable_bonds>  (286) 
0

>  <r_i_docking_score>  (286) 
-3.75448

>  <r_i_glide_ligand_efficiency>  (286) 
-0.375448

>  <r_i_glide_ligand_efficiency_sa>  (286) 
-0.808878

>  <r_i_glide_ligand_efficiency_ln>  (286) 
-1.13683

>  <r_i_glide_gscore>  (286) 
-3.75448

>  <r_i_glide_lipo>  (286) 
-0.172394

>  <r_i_glide_hbond>  (286) 
0

>  <r_i_glide_metal>  (286) 
-0

>  <r_i_glide_rewards>  (286) 
-2.25

>  <r_i_glide_evdw>  (286) 
-13.6361

>  <r_i_glide_ecoul>  (286) 
-3.03569

>  <r_i_glide_erotb>  (286) 
0

>  <r_i_glide_esite>  (286) 
-0.194929

>  <r_i_glide_emodel>  (286) 
-21.705

>  <r_i_glide_energy>  (286) 
-16.6718

>  <r_i_glide_einternal>  (286) 
0

>  <r_i_glide_intrahb_reward>  (286) 
-0

>  <i_i_glide_confnum>  (286) 
1

>  <i_i_glide_posenum>  (286) 
10

>  <r_i_glide_eff_state_penalty>  (286) 
0

>  <ligand_id>  (286) 
83

>  <original_smiles>  (286) 
Cc1nccn2nnnc12

>  <smiles>  (286) 
[H]c1nc(C([H])([H])[H])c2nnnn2c1[H]

$$$$
83:0:2
     RDKit          3D

 15 16  0  0  1  0  0  0  0  0999 V2000
   -2.0163    2.3738    3.1064 C   0  0  0  0  0  0  0  0  0  0  0  0
   -0.9684    1.2798    3.1403 C   0  0  0  0  0  0  0  0  0  0  0  0
   -0.0168    1.3529    2.1973 N   0  0  0  0  0  0  0  0  0  0  0  0
    0.9373    0.4026    2.1884 C   0  0  0  0  0  0  0  0  0  0  0  0
    1.0491   -0.6910    3.0813 C   0  0  0  0  0  0  0  0  0  0  0  0
    0.0299   -0.7112    4.0371 N   0  0  0  0  0  0  0  0  0  0  0  0
   -0.1190   -1.6488    5.0002 N   0  0  0  0  0  0  0  0  0  0  0  0
   -1.1898   -1.2769    5.6389 N   0  0  0  0  0  0  0  0  0  0  0  0
   -1.7641   -0.1179    5.1234 N   0  0  0  0  0  0  0  0  0  0  0  0
   -0.9887    0.2429    4.1006 C   0  0  0  0  0  0  0  0  0  0  0  0
   -2.7574    2.2472    3.8957 H   0  0  0  0  0  0  0  0  0  0  0  0
   -2.5334    2.3629    2.1463 H   0  0  0  0  0  0  0  0  0  0  0  0
   -1.5390    3.3467    3.2281 H   0  0  0  0  0  0  0  0  0  0  0  0
    1.6721    0.5117    1.4040 H   0  0  0  0  0  0  0  0  0  0  0  0
    1.8134   -1.4530    3.0619 H   0  0  0  0  0  0  0  0  0  0  0  0
  1  2  1  0
  1 11  1  0
  1 12  1  0
  1 13  1  0
  2 10  1  0
  2  3  2  0
  3  4  1  0
  4  5  2  0
  4 14  1  0
  5  6  1  0
  5 15  1  0
  6 10  1  0
  6  7  1  0
  7  8  2  0
  8  9  1  0
  9 10  2  0
M  END
>  <i_m_ct_stereo_status>  (287) 
1

>  <s_m_source_file>  (287) 
/var/tmp/pbs.5076255.sched01/tmpavn81tjv/78c0r2i372.sdf

>  <i_m_source_file_index>  (287) 
34

>  <i_lp_mmshare_version>  (287) 
48012

>  <i_f3d_flags>  (287) 
0

>  <s_epik_input>  (287) 
W2NIXTFbY0hdbmMoW0NIM10pYyhuMTIpbm5uMg==

>  <s_epik_cmdline>  (287) 
J2VwaWtfcHl0aG9uJywgJy1waHQnLCAnMi4wJywgJy1waCcsICc3LjAnLCAnLXRuJywgJzgnLCAnLW1hJywgJzIwMCcsICctaW1hZScsICc8aW5maWxlLm1hZT4nLCAnLW9tYWUnLCAnPG91dGZpbGUubWFlPic=

>  <r_lp_tautomer_probability>  (287) 
1

>  <r_epik_Ionization_Penalty>  (287) 
8.85187e-09

>  <r_epik_Ionization_Penalty_Charging>  (287) 
0

>  <r_epik_Ionization_Penalty_Neutral>  (287) 
8.85187e-09

>  <r_epik_State_Penalty>  (287) 
-0

>  <r_epik_Charging_Adjusted_Penalty>  (287) 
0

>  <i_epik_Tot_Q>  (287) 
0

>  <i_epik_Tot_abs_Q>  (287) 
0

>  <s_lp_Force_Field>  (287) 
OPLS3e

>  <r_lp_Energy>  (287) 
9.72958

>  <b_lp_Chiralities_Consistent>  (287) 
1

>  <s_lp_Variant>  (287) 
83:0-1

>  <s_i_glide_gridfile>  (287) 
pfpi4k_grid

>  <i_i_glide_lignum>  (287) 
34

>  <i_i_glide_rotatable_bonds>  (287) 
0

>  <r_i_docking_score>  (287) 
-3.5366

>  <r_i_glide_ligand_efficiency>  (287) 
-0.35366

>  <r_i_glide_ligand_efficiency_sa>  (287) 
-0.761937

>  <r_i_glide_ligand_efficiency_ln>  (287) 
-1.07086

>  <r_i_glide_gscore>  (287) 
-3.5366

>  <r_i_glide_lipo>  (287) 
0

>  <r_i_glide_hbond>  (287) 
0

>  <r_i_glide_metal>  (287) 
-0

>  <r_i_glide_rewards>  (287) 
-2.25

>  <r_i_glide_evdw>  (287) 
-14.8457

>  <r_i_glide_ecoul>  (287) 
-2.57045

>  <r_i_glide_erotb>  (287) 
0

>  <r_i_glide_esite>  (287) 
-0.15875

>  <r_i_glide_emodel>  (287) 
-22.1562

>  <r_i_glide_energy>  (287) 
-17.4161

>  <r_i_glide_einternal>  (287) 
0

>  <r_i_glide_intrahb_reward>  (287) 
-0

>  <i_i_glide_confnum>  (287) 
1

>  <i_i_glide_posenum>  (287) 
16

>  <r_i_glide_eff_state_penalty>  (287) 
0

>  <ligand_id>  (287) 
83

>  <original_smiles>  (287) 
Cc1nccn2nnnc12

>  <smiles>  (287) 
[H]c1nc(C([H])([H])[H])c2nnnn2c1[H]

$$$$
84:0:0
     RDKit          3D

 22 26  0  0  1  0  0  0  0  0999 V2000
    4.2156   -2.8684   -4.3021 O   0  0  0  0  0  0  0  0  0  0  0  0
    4.1229   -2.9459   -3.0803 C   0  0  0  0  0  0  0  0  0  0  0  0
    3.0451   -2.6785   -2.3511 O   0  0  0  0  0  0  0  0  0  0  0  0
    3.2736   -2.8617   -0.9651 C   0  0  1  0  0  0  0  0  0  0  0  0
    4.4557   -3.8666   -0.8896 C   0  0  2  0  0  0  0  0  0  0  0  0
    5.3775   -3.4112    0.2896 C   0  0  1  0  0  0  0  0  0  0  0  0
    6.7387   -3.2031   -0.3716 C   0  0  0  0  0  0  0  0  0  0  0  0
    6.1607   -2.3637   -1.5208 C   0  0  1  0  0  0  0  0  0  0  0  0
    5.2290   -3.4401   -2.1488 C   0  0  2  0  0  0  0  0  0  0  0  0
    5.3287   -1.2993   -0.7766 C   0  0  2  0  0  0  0  0  0  0  0  0
    4.9514   -1.9907    0.5106 C   0  0  1  0  0  0  0  0  0  0  0  0
    3.8710   -1.5944   -0.4026 C   0  0  2  0  0  0  0  0  0  0  0  0
    2.3925   -3.1692   -0.3988 H   0  0  0  0  0  0  0  0  0  0  0  0
    4.1796   -4.9233   -0.8972 H   0  0  0  0  0  0  0  0  0  0  0  0
    5.3434   -4.0208    1.1934 H   0  0  0  0  0  0  0  0  0  0  0  0
    7.4347   -2.6482    0.2619 H   0  0  0  0  0  0  0  0  0  0  0  0
    7.2142   -4.1308   -0.6957 H   0  0  0  0  0  0  0  0  0  0  0  0
    6.9062   -1.9473   -2.2000 H   0  0  0  0  0  0  0  0  0  0  0  0
    5.7936   -4.2583   -2.5944 H   0  0  0  0  0  0  0  0  0  0  0  0
    5.7389   -0.2982   -0.6633 H   0  0  0  0  0  0  0  0  0  0  0  0
    5.1409   -1.4822    1.4510 H   0  0  0  0  0  0  0  0  0  0  0  0
    3.2172   -0.7615   -0.1554 H   0  0  0  0  0  0  0  0  0  0  0  0
  1  2  2  0
  2  9  1  0
  2  3  1  0
  3  4  1  0
  4 12  1  0
  4  5  1  0
  4 13  1  1
  5  9  1  0
  5  6  1  0
  5 14  1  6
  6 11  1  0
  6  7  1  0
  6 15  1  1
  7  8  1  0
  7 16  1  0
  7 17  1  0
  8  9  1  0
  8 10  1  0
  8 18  1  6
  9 19  1  6
 10 12  1  0
 10 11  1  0
 10 20  1  1
 11 12  1  0
 11 21  1  1
 12 22  1  1
M  END
>  <i_m_ct_stereo_status>  (288) 
1

>  <s_m_source_file>  (288) 
/var/tmp/pbs.5076255.sched01/tmpavn81tjv/78c0r2i372.sdf

>  <i_m_source_file_index>  (288) 
35

>  <i_lp_mmshare_version>  (288) 
48012

>  <i_f3d_flags>  (288) 
0

>  <s_epik_input>  (288) 
Tz1DKE8xKVtDQEhdMltDQEhdKFtDSDJdMylbQ0BASF0oW0NAQEhdNDUpW0NAQEhdNVtDQEhdM1tDQEhdMltDQEhdMTQ=

>  <s_epik_cmdline>  (288) 
J2VwaWtfcHl0aG9uJywgJy1waHQnLCAnMi4wJywgJy1waCcsICc3LjAnLCAnLXRuJywgJzgnLCAnLW1hJywgJzIwMCcsICctaW1hZScsICc8aW5maWxlLm1hZT4nLCAnLW9tYWUnLCAnPG91dGZpbGUubWFlPic=

>  <r_lp_tautomer_probability>  (288) 
1

>  <r_epik_Ionization_Penalty>  (288) 
0

>  <r_epik_Ionization_Penalty_Charging>  (288) 
0

>  <r_epik_Ionization_Penalty_Neutral>  (288) 
0

>  <r_epik_State_Penalty>  (288) 
-0

>  <r_epik_Charging_Adjusted_Penalty>  (288) 
0

>  <i_epik_Tot_Q>  (288) 
0

>  <i_epik_Tot_abs_Q>  (288) 
0

>  <s_epik_Chemistry_Notes>  (288) 
This compound has an ester and may undergo hydrolysis at high or low pH.

>  <s_lp_Force_Field>  (288) 
OPLS3e

>  <r_lp_Energy>  (288) 
46.4065

>  <b_lp_Chiralities_Consistent>  (288) 
1

>  <s_lp_Variant>  (288) 
84:0-1

>  <s_i_glide_gridfile>  (288) 
pfpi4k_grid

>  <i_i_glide_lignum>  (288) 
35

>  <i_i_glide_rotatable_bonds>  (288) 
0

>  <r_i_docking_score>  (288) 
-4.30142

>  <r_i_glide_ligand_efficiency>  (288) 
-0.358451

>  <r_i_glide_ligand_efficiency_sa>  (288) 
-0.820649

>  <r_i_glide_ligand_efficiency_ln>  (288) 
-1.2343

>  <r_i_glide_gscore>  (288) 
-4.30142

>  <r_i_glide_lipo>  (288) 
-0.320052

>  <r_i_glide_hbond>  (288) 
-0.255405

>  <r_i_glide_metal>  (288) 
-0

>  <r_i_glide_rewards>  (288) 
-2.3635

>  <r_i_glide_evdw>  (288) 
-17.799

>  <r_i_glide_ecoul>  (288) 
-3.15008

>  <r_i_glide_erotb>  (288) 
0

>  <r_i_glide_esite>  (288) 
0

>  <r_i_glide_emodel>  (288) 
-26.3104

>  <r_i_glide_energy>  (288) 
-20.949

>  <r_i_glide_einternal>  (288) 
0

>  <r_i_glide_intrahb_reward>  (288) 
-0

>  <i_i_glide_confnum>  (288) 
1

>  <i_i_glide_posenum>  (288) 
1

>  <r_i_glide_eff_state_penalty>  (288) 
0

>  <ligand_id>  (288) 
84

>  <original_smiles>  (288) 
O=C1OC2C3C4CC(C13)C1C4C21

>  <smiles>  (288) 
[H]C1([H])C2([H])C3([H])C(=O)OC4([H])C3([H])C1([H])C1([H])C4([H])C21[H]

$$$$
84:0:1
     RDKit          3D

 22 26  0  0  1  0  0  0  0  0999 V2000
    2.9834   -5.0493    0.4846 O   0  0  0  0  0  0  0  0  0  0  0  0
    3.0796   -4.1284   -0.3218 C   0  0  0  0  0  0  0  0  0  0  0  0
    2.1780   -3.7659   -1.2372 O   0  0  0  0  0  0  0  0  0  0  0  0
    2.6140   -2.6581   -2.0114 C   0  0  1  0  0  0  0  0  0  0  0  0
    3.6362   -1.9313   -1.0966 C   0  0  2  0  0  0  0  0  0  0  0  0
    4.7829   -1.4079   -2.0165 C   0  0  1  0  0  0  0  0  0  0  0  0
    6.0305   -2.0786   -1.4424 C   0  0  0  0  0  0  0  0  0  0  0  0
    5.3927   -3.4702   -1.3981 C   0  0  1  0  0  0  0  0  0  0  0  0
    4.2497   -3.1478   -0.3921 C   0  0  2  0  0  0  0  0  0  0  0  0
    4.8466   -3.6292   -2.8318 C   0  0  2  0  0  0  0  0  0  0  0  0
    4.5910   -2.2073   -3.2686 C   0  0  1  0  0  0  0  0  0  0  0  0
    3.4481   -3.1200   -3.1704 C   0  0  2  0  0  0  0  0  0  0  0  0
    1.8153   -2.0102   -2.3684 H   0  0  0  0  0  0  0  0  0  0  0  0
    3.2032   -1.2010   -0.4077 H   0  0  0  0  0  0  0  0  0  0  0  0
    4.8144   -0.3326   -2.1964 H   0  0  0  0  0  0  0  0  0  0  0  0
    6.8868   -2.0426   -2.1178 H   0  0  0  0  0  0  0  0  0  0  0  0
    6.3191   -1.6925   -0.4614 H   0  0  0  0  0  0  0  0  0  0  0  0
    6.0667   -4.2725   -1.1017 H   0  0  0  0  0  0  0  0  0  0  0  0
    4.6219   -2.9179    0.6047 H   0  0  0  0  0  0  0  0  0  0  0  0
    5.3920   -4.2520   -3.5361 H   0  0  0  0  0  0  0  0  0  0  0  0
    4.9765   -1.8638   -4.2221 H   0  0  0  0  0  0  0  0  0  0  0  0
    2.9586   -3.4978   -4.0643 H   0  0  0  0  0  0  0  0  0  0  0  0
  1  2  2  0
  2  9  1  0
  2  3  1  0
  3  4  1  0
  4 12  1  0
  4  5  1  0
  4 13  1  6
  5  9  1  0
  5  6  1  0
  5 14  1  1
  6 11  1  0
  6  7  1  0
  6 15  1  6
  7  8  1  0
  7 16  1  0
  7 17  1  0
  8  9  1  0
  8 10  1  0
  8 18  1  1
  9 19  1  1
 10 12  1  0
 10 11  1  0
 10 20  1  6
 11 12  1  0
 11 21  1  6
 12 22  1  6
M  END
>  <i_m_ct_stereo_status>  (289) 
1

>  <s_m_source_file>  (289) 
/var/tmp/pbs.5076255.sched01/tmpavn81tjv/78c0r2i372.sdf

>  <i_m_source_file_index>  (289) 
35

>  <i_lp_mmshare_version>  (289) 
48012

>  <i_f3d_flags>  (289) 
0

>  <s_epik_input>  (289) 
Tz1DKE8xKVtDQEhdMltDQEhdKFtDSDJdMylbQ0BASF0oW0NAQEhdNDUpW0NAQEhdNVtDQEhdM1tDQEhdMltDQEhdMTQ=

>  <s_epik_cmdline>  (289) 
J2VwaWtfcHl0aG9uJywgJy1waHQnLCAnMi4wJywgJy1waCcsICc3LjAnLCAnLXRuJywgJzgnLCAnLW1hJywgJzIwMCcsICctaW1hZScsICc8aW5maWxlLm1hZT4nLCAnLW9tYWUnLCAnPG91dGZpbGUubWFlPic=

>  <r_lp_tautomer_probability>  (289) 
1

>  <r_epik_Ionization_Penalty>  (289) 
0

>  <r_epik_Ionization_Penalty_Charging>  (289) 
0

>  <r_epik_Ionization_Penalty_Neutral>  (289) 
0

>  <r_epik_State_Penalty>  (289) 
-0

>  <r_epik_Charging_Adjusted_Penalty>  (289) 
0

>  <i_epik_Tot_Q>  (289) 
0

>  <i_epik_Tot_abs_Q>  (289) 
0

>  <s_epik_Chemistry_Notes>  (289) 
This compound has an ester and may undergo hydrolysis at high or low pH.

>  <s_lp_Force_Field>  (289) 
OPLS3e

>  <r_lp_Energy>  (289) 
46.4065

>  <b_lp_Chiralities_Consistent>  (289) 
1

>  <s_lp_Variant>  (289) 
84:0-1

>  <s_i_glide_gridfile>  (289) 
pfpi4k_grid

>  <i_i_glide_lignum>  (289) 
35

>  <i_i_glide_rotatable_bonds>  (289) 
0

>  <r_i_docking_score>  (289) 
-3.47009

>  <r_i_glide_ligand_efficiency>  (289) 
-0.289174

>  <r_i_glide_ligand_efficiency_sa>  (289) 
-0.662043

>  <r_i_glide_ligand_efficiency_ln>  (289) 
-0.995747

>  <r_i_glide_gscore>  (289) 
-3.47009

>  <r_i_glide_lipo>  (289) 
-0.328943

>  <r_i_glide_hbond>  (289) 
0

>  <r_i_glide_metal>  (289) 
-0

>  <r_i_glide_rewards>  (289) 
-2.25

>  <r_i_glide_evdw>  (289) 
-16.7762

>  <r_i_glide_ecoul>  (289) 
-0.159947

>  <r_i_glide_erotb>  (289) 
0

>  <r_i_glide_esite>  (289) 
-0.0283412

>  <r_i_glide_emodel>  (289) 
-21.2154

>  <r_i_glide_energy>  (289) 
-16.9361

>  <r_i_glide_einternal>  (289) 
0

>  <r_i_glide_intrahb_reward>  (289) 
-0

>  <i_i_glide_confnum>  (289) 
1

>  <i_i_glide_posenum>  (289) 
17

>  <r_i_glide_eff_state_penalty>  (289) 
0

>  <ligand_id>  (289) 
84

>  <original_smiles>  (289) 
O=C1OC2C3C4CC(C13)C1C4C21

>  <smiles>  (289) 
[H]C1([H])C2([H])C3([H])C(=O)OC4([H])C3([H])C1([H])C1([H])C4([H])C21[H]

$$$$
84:0:2
     RDKit          3D

 22 26  0  0  1  0  0  0  0  0999 V2000
    2.5464   -4.6823    0.6965 O   0  0  0  0  0  0  0  0  0  0  0  0
    3.4369   -3.8934    0.3921 C   0  0  0  0  0  0  0  0  0  0  0  0
    3.9176   -2.8916    1.1335 O   0  0  0  0  0  0  0  0  0  0  0  0
    4.9393   -2.1702    0.4637 C   0  0  1  0  0  0  0  0  0  0  0  0
    5.5249   -3.1799   -0.5592 C   0  0  2  0  0  0  0  0  0  0  0  0
    5.8258   -2.3950   -1.8772 C   0  0  1  0  0  0  0  0  0  0  0  0
    5.0023   -3.1218   -2.9392 C   0  0  0  0  0  0  0  0  0  0  0  0
    3.7229   -3.1129   -2.0930 C   0  0  1  0  0  0  0  0  0  0  0  0
    4.2479   -3.9618   -0.8998 C   0  0  2  0  0  0  0  0  0  0  0  0
    3.5926   -1.6341   -1.6849 C   0  0  2  0  0  0  0  0  0  0  0  0
    5.0151   -1.1406   -1.7043 C   0  0  1  0  0  0  0  0  0  0  0  0
    4.2996   -1.1253   -0.4209 C   0  0  2  0  0  0  0  0  0  0  0  0
    5.6892   -1.7232    1.1198 H   0  0  0  0  0  0  0  0  0  0  0  0
    6.3283   -3.8192   -0.1842 H   0  0  0  0  0  0  0  0  0  0  0  0
    6.8772   -2.2190   -2.1006 H   0  0  0  0  0  0  0  0  0  0  0  0
    4.9056   -2.5511   -3.8654 H   0  0  0  0  0  0  0  0  0  0  0  0
    5.3731   -4.1247   -3.1732 H   0  0  0  0  0  0  0  0  0  0  0  0
    2.8324   -3.5022   -2.5942 H   0  0  0  0  0  0  0  0  0  0  0  0
    4.4520   -4.9948   -1.1792 H   0  0  0  0  0  0  0  0  0  0  0  0
    2.8626   -1.0161   -2.2057 H   0  0  0  0  0  0  0  0  0  0  0  0
    5.2351   -0.2417   -2.2717 H   0  0  0  0  0  0  0  0  0  0  0  0
    3.9647   -0.1895    0.0229 H   0  0  0  0  0  0  0  0  0  0  0  0
  1  2  2  0
  2  9  1  0
  2  3  1  0
  3  4  1  0
  4 12  1  0
  4  5  1  0
  4 13  1  1
  5  9  1  0
  5  6  1  0
  5 14  1  1
  6 11  1  0
  6  7  1  0
  6 15  1  6
  7  8  1  0
  7 16  1  0
  7 17  1  0
  8  9  1  0
  8 10  1  0
  8 18  1  6
  9 19  1  6
 10 12  1  0
 10 11  1  0
 10 20  1  6
 11 12  1  0
 11 21  1  6
 12 22  1  1
M  END
>  <i_m_ct_stereo_status>  (290) 
1

>  <s_m_source_file>  (290) 
/var/tmp/pbs.5076255.sched01/tmpavn81tjv/78c0r2i372.sdf

>  <i_m_source_file_index>  (290) 
35

>  <i_lp_mmshare_version>  (290) 
48012

>  <i_f3d_flags>  (290) 
0

>  <s_epik_input>  (290) 
Tz1DKE8xKVtDQEhdMltDQEhdKFtDSDJdMylbQ0BASF0oW0NAQEhdNDUpW0NAQEhdNVtDQEhdM1tDQEhdMltDQEhdMTQ=

>  <s_epik_cmdline>  (290) 
J2VwaWtfcHl0aG9uJywgJy1waHQnLCAnMi4wJywgJy1waCcsICc3LjAnLCAnLXRuJywgJzgnLCAnLW1hJywgJzIwMCcsICctaW1hZScsICc8aW5maWxlLm1hZT4nLCAnLW9tYWUnLCAnPG91dGZpbGUubWFlPic=

>  <r_lp_tautomer_probability>  (290) 
1

>  <r_epik_Ionization_Penalty>  (290) 
0

>  <r_epik_Ionization_Penalty_Charging>  (290) 
0

>  <r_epik_Ionization_Penalty_Neutral>  (290) 
0

>  <r_epik_State_Penalty>  (290) 
-0

>  <r_epik_Charging_Adjusted_Penalty>  (290) 
0

>  <i_epik_Tot_Q>  (290) 
0

>  <i_epik_Tot_abs_Q>  (290) 
0

>  <s_epik_Chemistry_Notes>  (290) 
This compound has an ester and may undergo hydrolysis at high or low pH.

>  <s_lp_Force_Field>  (290) 
OPLS3e

>  <r_lp_Energy>  (290) 
46.4065

>  <b_lp_Chiralities_Consistent>  (290) 
1

>  <s_lp_Variant>  (290) 
84:0-1

>  <s_i_glide_gridfile>  (290) 
pfpi4k_grid

>  <i_i_glide_lignum>  (290) 
35

>  <i_i_glide_rotatable_bonds>  (290) 
0

>  <r_i_docking_score>  (290) 
-3.41977

>  <r_i_glide_ligand_efficiency>  (290) 
-0.284981

>  <r_i_glide_ligand_efficiency_sa>  (290) 
-0.652443

>  <r_i_glide_ligand_efficiency_ln>  (290) 
-0.981308

>  <r_i_glide_gscore>  (290) 
-3.41977

>  <r_i_glide_lipo>  (290) 
-0.251894

>  <r_i_glide_hbond>  (290) 
0

>  <r_i_glide_metal>  (290) 
-0

>  <r_i_glide_rewards>  (290) 
-2.25

>  <r_i_glide_evdw>  (290) 
-17.1552

>  <r_i_glide_ecoul>  (290) 
-0.363842

>  <r_i_glide_erotb>  (290) 
0

>  <r_i_glide_esite>  (290) 
-0.00553535

>  <r_i_glide_emodel>  (290) 
-21.779

>  <r_i_glide_energy>  (290) 
-17.5191

>  <r_i_glide_einternal>  (290) 
0

>  <r_i_glide_intrahb_reward>  (290) 
-0

>  <i_i_glide_confnum>  (290) 
2

>  <i_i_glide_posenum>  (290) 
26

>  <r_i_glide_eff_state_penalty>  (290) 
0

>  <ligand_id>  (290) 
84

>  <original_smiles>  (290) 
O=C1OC2C3C4CC(C13)C1C4C21

>  <smiles>  (290) 
[H]C1([H])C2([H])C3([H])C(=O)OC4([H])C3([H])C1([H])C1([H])C4([H])C21[H]

$$$$
86:0:0
     RDKit          3D

 65 67  0  0  1  0  0  0  0  0999 V2000
    0.2283   -9.4299    2.4169 C   0  0  0  0  0  0  0  0  0  0  0  0
    0.8555   -8.6373    3.3935 O   0  0  0  0  0  0  0  0  0  0  0  0
    1.6362   -7.6140    3.0669 C   0  0  0  0  0  0  0  0  0  0  0  0
    1.8150   -7.2391    1.8882 O   0  0  0  0  0  0  0  0  0  0  0  0
    2.3341   -6.9326    4.2797 C   0  0  2  0  0  0  0  0  0  0  0  0
    3.4845   -7.8242    4.8387 C   0  0  0  0  0  0  0  0  0  0  0  0
    3.2101   -9.3067    5.1723 C   0  0  0  0  0  0  0  0  0  0  0  0
    2.2815   -9.5689    6.3670 C   0  0  0  0  0  0  0  0  0  0  0  0
    0.8212   -9.0841    6.2038 C   0  0  0  0  0  0  0  0  0  0  0  0
    0.6947   -7.5651    6.1945 C   0  0  0  0  0  0  0  0  0  0  0  0
    1.2964   -6.6138    5.4088 C   0  0  0  0  0  0  0  0  0  0  0  0
    1.0621   -5.2262    5.7028 N   0  0  0  0  0  0  0  0  0  0  0  0
    0.4867   -4.8248    7.0130 C   0  0  0  0  0  0  0  0  0  0  0  0
   -1.0357   -4.7750    7.0711 C   0  0  0  0  0  0  0  0  0  0  0  0
   -1.7725   -3.4640    6.9875 C   0  0  0  0  0  0  0  0  0  0  0  0
   -1.7260   -4.2210    8.2915 C   0  0  0  0  0  0  0  0  0  0  0  0
    1.3198   -4.1986    4.8371 C   0  0  0  0  0  0  0  0  0  0  0  0
    1.0330   -3.0141    5.0738 O   0  0  0  0  0  0  0  0  0  0  0  0
    1.9941   -4.5272    3.5027 C   0  0  1  0  0  0  0  0  0  0  0  0
    2.5829   -3.2794    2.7922 C   0  0  0  0  0  0  0  0  0  0  0  0
    3.0197   -3.5474    1.3474 C   0  0  0  0  0  0  0  0  0  0  0  0
    2.5986   -4.5295    0.7360 O   0  0  0  0  0  0  0  0  0  0  0  0
    3.8671   -2.6511    0.8174 N   0  0  0  0  0  0  0  0  0  0  0  0
    4.4031   -2.6464   -0.5462 C   0  0  0  0  0  0  0  0  0  0  0  0
    3.3076   -2.6666   -1.6366 C   0  0  0  0  0  0  0  0  0  0  0  0
    3.8290   -2.5914   -3.0798 C   0  0  0  0  0  0  0  0  0  0  0  0
    4.2316   -1.1548   -3.4521 C   0  0  0  0  0  0  0  0  0  0  0  0
    2.7760   -3.1230   -4.0678 C   0  0  0  0  0  0  0  0  0  0  0  0
    3.0302   -5.6295    3.7805 C   0  0  0  0  0  0  0  0  0  0  0  0
   -0.3212  -10.2005    2.9378 H   0  0  0  0  0  0  0  0  0  0  0  0
    0.9400   -9.9240    1.7470 H   0  0  0  0  0  0  0  0  0  0  0  0
   -0.4803   -8.8635    1.8046 H   0  0  0  0  0  0  0  0  0  0  0  0
    4.3117   -7.8071    4.1246 H   0  0  0  0  0  0  0  0  0  0  0  0
    3.8930   -7.3540    5.7331 H   0  0  0  0  0  0  0  0  0  0  0  0
    2.8876   -9.8501    4.2859 H   0  0  0  0  0  0  0  0  0  0  0  0
    4.1692   -9.7608    5.4126 H   0  0  0  0  0  0  0  0  0  0  0  0
    2.2493  -10.6488    6.4962 H   0  0  0  0  0  0  0  0  0  0  0  0
    2.7249   -9.1655    7.2787 H   0  0  0  0  0  0  0  0  0  0  0  0
    0.3358   -9.5388    5.3250 H   0  0  0  0  0  0  0  0  0  0  0  0
    0.2691   -9.4340    7.0983 H   0  0  0  0  0  0  0  0  0  0  0  0
    0.0333   -7.2503    6.9784 H   0  0  0  0  0  0  0  0  0  0  0  0
    0.8427   -5.4822    7.8068 H   0  0  0  0  0  0  0  0  0  0  0  0
    0.8655   -3.8479    7.3472 H   0  0  0  0  0  0  0  0  0  0  0  0
   -1.5261   -5.6137    6.5779 H   0  0  0  0  0  0  0  0  0  0  0  0
   -1.1665   -2.5610    6.8764 H   0  0  0  0  0  0  0  0  0  0  0  0
   -2.7380   -3.4391    6.4851 H   0  0  0  0  0  0  0  0  0  0  0  0
   -2.6521   -4.7013    8.6100 H   0  0  0  0  0  0  0  0  0  0  0  0
   -1.0949   -3.8423    9.0966 H   0  0  0  0  0  0  0  0  0  0  0  0
    1.1868   -4.9055    2.8758 H   0  0  0  0  0  0  0  0  0  0  0  0
    1.8282   -2.4902    2.7345 H   0  0  0  0  0  0  0  0  0  0  0  0
    3.4209   -2.8768    3.3697 H   0  0  0  0  0  0  0  0  0  0  0  0
    4.1794   -1.9064    1.4231 H   0  0  0  0  0  0  0  0  0  0  0  0
    4.9988   -1.7376   -0.6500 H   0  0  0  0  0  0  0  0  0  0  0  0
    5.0942   -3.4829   -0.6683 H   0  0  0  0  0  0  0  0  0  0  0  0
    2.7240   -3.5795   -1.5536 H   0  0  0  0  0  0  0  0  0  0  0  0
    2.6213   -1.8404   -1.4614 H   0  0  0  0  0  0  0  0  0  0  0  0
    4.7038   -3.2410   -3.1610 H   0  0  0  0  0  0  0  0  0  0  0  0
    3.3790   -0.4766   -3.3894 H   0  0  0  0  0  0  0  0  0  0  0  0
    4.6121   -1.1088   -4.4729 H   0  0  0  0  0  0  0  0  0  0  0  0
    5.0072   -0.7717   -2.7877 H   0  0  0  0  0  0  0  0  0  0  0  0
    1.8376   -2.5687   -4.0032 H   0  0  0  0  0  0  0  0  0  0  0  0
    2.5528   -4.1761   -3.8920 H   0  0  0  0  0  0  0  0  0  0  0  0
    3.1413   -3.0471   -5.0891 H   0  0  0  0  0  0  0  0  0  0  0  0
    3.7436   -5.2663    4.5321 H   0  0  0  0  0  0  0  0  0  0  0  0
    3.6421   -5.8231    2.8913 H   0  0  0  0  0  0  0  0  0  0  0  0
  1  2  1  0
  1 30  1  0
  1 31  1  0
  1 32  1  0
  2  3  1  0
  3  4  2  0
  5  3  1  6
  5 11  1  0
  5 29  1  0
  5  6  1  0
  6  7  1  0
  6 33  1  0
  6 34  1  0
  7  8  1  0
  7 35  1  0
  7 36  1  0
  8  9  1  0
  8 37  1  0
  8 38  1  0
  9 10  1  0
  9 39  1  0
  9 40  1  0
 10 11  2  0
 10 41  1  0
 11 12  1  0
 12 13  1  0
 12 17  1  0
 13 14  1  0
 13 42  1  0
 13 43  1  0
 14 16  1  0
 14 15  1  0
 14 44  1  0
 15 16  1  0
 15 45  1  0
 15 46  1  0
 16 47  1  0
 16 48  1  0
 17 18  2  0
 17 19  1  0
 19 20  1  0
 19 29  1  0
 19 49  1  6
 20 21  1  0
 20 50  1  0
 20 51  1  0
 21 22  2  0
 21 23  1  0
 23 24  1  0
 23 52  1  0
 24 25  1  0
 24 53  1  0
 24 54  1  0
 25 26  1  0
 25 55  1  0
 25 56  1  0
 26 27  1  0
 26 28  1  0
 26 57  1  0
 27 58  1  0
 27 59  1  0
 27 60  1  0
 28 61  1  0
 28 62  1  0
 28 63  1  0
 29 64  1  0
 29 65  1  0
M  END
>  <i_m_ct_stereo_status>  (291) 
1

>  <s_m_source_file>  (291) 
/var/tmp/pbs.5076255.sched01/tmpavn81tjv/78c0r2i372.sdf

>  <i_m_source_file_index>  (291) 
37

>  <i_lp_mmshare_version>  (291) 
48012

>  <i_f3d_flags>  (291) 
0

>  <s_epik_input>  (291) 
W0NIMl0xW0NIMl1bQ0gyXVtDSDJdW0NIXT1DKFtDQF0xMkMoPU8pT1tDSDNdKU4oW0NIMl1bQ0hdM1tDSDJdW0NIMl0zKUMoPU8pW0NASF0oW0NIMl0yKVtDSDJdQyg9TylbTkhdW0NIMl1bQ0gyXVtDSF0oW0NIM10pW0NIM10=

>  <s_epik_cmdline>  (291) 
J2VwaWtfcHl0aG9uJywgJy1waHQnLCAnMi4wJywgJy1waCcsICc3LjAnLCAnLXRuJywgJzgnLCAnLW1hJywgJzIwMCcsICctaW1hZScsICc8aW5maWxlLm1hZT4nLCAnLW9tYWUnLCAnPG91dGZpbGUubWFlPic=

>  <r_lp_tautomer_probability>  (291) 
1

>  <r_epik_Ionization_Penalty>  (291) 
2.42995e-08

>  <r_epik_Ionization_Penalty_Charging>  (291) 
0

>  <r_epik_Ionization_Penalty_Neutral>  (291) 
2.42995e-08

>  <r_epik_State_Penalty>  (291) 
-0

>  <r_epik_Charging_Adjusted_Penalty>  (291) 
0

>  <i_epik_Tot_Q>  (291) 
0

>  <i_epik_Tot_abs_Q>  (291) 
0

>  <s_epik_Chemistry_Notes>  (291) 
This compound has an ester and may undergo hydrolysis at high or low pH.

>  <s_lp_Force_Field>  (291) 
OPLS3e

>  <r_lp_Energy>  (291) 
39.0115

>  <b_lp_Chiralities_Consistent>  (291) 
1

>  <s_lp_Variant>  (291) 
86:0-1

>  <s_i_glide_gridfile>  (291) 
pfpi4k_grid

>  <i_i_glide_lignum>  (291) 
37

>  <i_i_glide_rotatable_bonds>  (291) 
10

>  <r_i_docking_score>  (291) 
-1.62728

>  <r_i_glide_ligand_efficiency>  (291) 
-0.056113

>  <r_i_glide_ligand_efficiency_sa>  (291) 
-0.172397

>  <r_i_glide_ligand_efficiency_ln>  (291) 
-0.372605

>  <r_i_glide_gscore>  (291) 
-1.62728

>  <r_i_glide_lipo>  (291) 
-0.346848

>  <r_i_glide_hbond>  (291) 
0

>  <r_i_glide_metal>  (291) 
-0

>  <r_i_glide_rewards>  (291) 
-0.656111

>  <r_i_glide_evdw>  (291) 
-27.267

>  <r_i_glide_ecoul>  (291) 
-1.31474

>  <r_i_glide_erotb>  (291) 
0.96027

>  <r_i_glide_esite>  (291) 
-0.024024

>  <r_i_glide_emodel>  (291) 
-28.4092

>  <r_i_glide_energy>  (291) 
-28.5818

>  <r_i_glide_einternal>  (291) 
3.93703

>  <r_i_glide_intrahb_reward>  (291) 
-0

>  <i_i_glide_confnum>  (291) 
2

>  <i_i_glide_posenum>  (291) 
33

>  <r_i_glide_eff_state_penalty>  (291) 
0

>  <ligand_id>  (291) 
86

>  <original_smiles>  (291) 
COC(=O)C12CCCCC=C1N(CC1CC1)C(=O)C(CC(=O)NCCC(C)C)C2

>  <smiles>  (291) 
[H]C1=C2N(C([H])([H])C3([H])C([H])([H])C3([H])[H])C(=O)C([H])(C([H])([H])C(=O)N([H])C([H])([H])C([H])([H])C([H])(C([H])([H])[H])C([H])([H])[H])C([H])([H])C2(C(=O)OC([H])([H])[H])C([H])([H])C([H])([H])C([H])([H])C1([H])[H]

$$$$
86:0:1
     RDKit          3D

 65 67  0  0  1  0  0  0  0  0999 V2000
   -0.6234   -8.1083    1.9847 C   0  0  0  0  0  0  0  0  0  0  0  0
    0.1617   -7.4956    2.9912 O   0  0  0  0  0  0  0  0  0  0  0  0
    1.4666   -7.8335    3.1040 C   0  0  0  0  0  0  0  0  0  0  0  0
    2.0456   -8.6213    2.3535 O   0  0  0  0  0  0  0  0  0  0  0  0
    2.2292   -7.0723    4.2298 C   0  0  2  0  0  0  0  0  0  0  0  0
    3.4155   -7.9242    4.7936 C   0  0  0  0  0  0  0  0  0  0  0  0
    3.1591   -9.3884    5.2064 C   0  0  0  0  0  0  0  0  0  0  0  0
    2.2478   -9.5629    6.4148 C   0  0  0  0  0  0  0  0  0  0  0  0
    0.8138   -9.0802    6.1772 C   0  0  0  0  0  0  0  0  0  0  0  0
    0.6763   -7.5704    6.2026 C   0  0  0  0  0  0  0  0  0  0  0  0
    1.2479   -6.6617    5.3678 C   0  0  0  0  0  0  0  0  0  0  0  0
    1.0143   -5.2609    5.5618 N   0  0  0  0  0  0  0  0  0  0  0  0
    0.4566   -4.7946    6.8499 C   0  0  0  0  0  0  0  0  0  0  0  0
   -1.0633   -4.7667    6.9424 C   0  0  0  0  0  0  0  0  0  0  0  0
   -1.8166   -3.4566    6.9266 C   0  0  0  0  0  0  0  0  0  0  0  0
   -1.7191   -4.2520    8.2077 C   0  0  0  0  0  0  0  0  0  0  0  0
    1.2146   -4.3227    4.5932 C   0  0  0  0  0  0  0  0  0  0  0  0
    0.9155   -3.1330    4.7462 O   0  0  0  0  0  0  0  0  0  0  0  0
    1.8393   -4.7416    3.2569 C   0  0  1  0  0  0  0  0  0  0  0  0
    2.4124   -3.5436    2.4519 C   0  0  0  0  0  0  0  0  0  0  0  0
    2.8516   -3.8977    1.0249 C   0  0  0  0  0  0  0  0  0  0  0  0
    2.2351   -4.7516    0.3800 O   0  0  0  0  0  0  0  0  0  0  0  0
    3.9127   -3.2272    0.5490 N   0  0  0  0  0  0  0  0  0  0  0  0
    4.5114   -3.3838   -0.7749 C   0  0  0  0  0  0  0  0  0  0  0  0
    3.8321   -2.4856   -1.8297 C   0  0  0  0  0  0  0  0  0  0  0  0
    4.5121   -2.5026   -3.2173 C   0  0  0  0  0  0  0  0  0  0  0  0
    3.9116   -1.4201   -4.1326 C   0  0  0  0  0  0  0  0  0  0  0  0
    4.4399   -3.8812   -3.8936 C   0  0  0  0  0  0  0  0  0  0  0  0
    2.8759   -5.8294    3.5649 C   0  0  0  0  0  0  0  0  0  0  0  0
   -1.6463   -7.7478    2.0727 H   0  0  0  0  0  0  0  0  0  0  0  0
   -0.6341   -9.1952    2.0915 H   0  0  0  0  0  0  0  0  0  0  0  0
   -0.2512   -7.8558    0.9893 H   0  0  0  0  0  0  0  0  0  0  0  0
    4.2030   -7.9494    4.0397 H   0  0  0  0  0  0  0  0  0  0  0  0
    3.8567   -7.4004    5.6414 H   0  0  0  0  0  0  0  0  0  0  0  0
    2.7876   -9.9872    4.3768 H   0  0  0  0  0  0  0  0  0  0  0  0
    4.1184   -9.8355    5.4585 H   0  0  0  0  0  0  0  0  0  0  0  0
    2.2234  -10.6289    6.6248 H   0  0  0  0  0  0  0  0  0  0  0  0
    2.6722   -9.0864    7.2985 H   0  0  0  0  0  0  0  0  0  0  0  0
    0.3921   -9.4868    5.2564 H   0  0  0  0  0  0  0  0  0  0  0  0
    0.1852   -9.4680    6.9819 H   0  0  0  0  0  0  0  0  0  0  0  0
    0.0044   -7.2573    6.9876 H   0  0  0  0  0  0  0  0  0  0  0  0
    0.8437   -5.4083    7.6637 H   0  0  0  0  0  0  0  0  0  0  0  0
    0.8326   -3.7999    7.1032 H   0  0  0  0  0  0  0  0  0  0  0  0
   -1.5624   -5.6045    6.4632 H   0  0  0  0  0  0  0  0  0  0  0  0
   -1.2308   -2.5461    6.8263 H   0  0  0  0  0  0  0  0  0  0  0  0
   -2.8036   -3.4322    6.4750 H   0  0  0  0  0  0  0  0  0  0  0  0
   -2.6244   -4.7539    8.5418 H   0  0  0  0  0  0  0  0  0  0  0  0
   -1.0646   -3.8833    8.9955 H   0  0  0  0  0  0  0  0  0  0  0  0
    1.0268   -5.1521    2.6601 H   0  0  0  0  0  0  0  0  0  0  0  0
    1.6485   -2.7724    2.3429 H   0  0  0  0  0  0  0  0  0  0  0  0
    3.2375   -3.0768    2.9945 H   0  0  0  0  0  0  0  0  0  0  0  0
    4.3472   -2.5550    1.1636 H   0  0  0  0  0  0  0  0  0  0  0  0
    5.5688   -3.1274   -0.7037 H   0  0  0  0  0  0  0  0  0  0  0  0
    4.4737   -4.4317   -1.0697 H   0  0  0  0  0  0  0  0  0  0  0  0
    2.7821   -2.7620   -1.9292 H   0  0  0  0  0  0  0  0  0  0  0  0
    3.8311   -1.4616   -1.4568 H   0  0  0  0  0  0  0  0  0  0  0  0
    5.5649   -2.2632   -3.0706 H   0  0  0  0  0  0  0  0  0  0  0  0
    2.8508   -1.6036   -4.3131 H   0  0  0  0  0  0  0  0  0  0  0  0
    4.4144   -1.3859   -5.0988 H   0  0  0  0  0  0  0  0  0  0  0  0
    4.0069   -0.4279   -3.6888 H   0  0  0  0  0  0  0  0  0  0  0  0
    3.4054   -4.2036   -4.0218 H   0  0  0  0  0  0  0  0  0  0  0  0
    4.9594   -4.6426   -3.3112 H   0  0  0  0  0  0  0  0  0  0  0  0
    4.9134   -3.8689   -4.8734 H   0  0  0  0  0  0  0  0  0  0  0  0
    3.6270   -5.4127    4.2421 H   0  0  0  0  0  0  0  0  0  0  0  0
    3.4198   -6.1250    2.6621 H   0  0  0  0  0  0  0  0  0  0  0  0
  1  2  1  0
  1 30  1  0
  1 31  1  0
  1 32  1  0
  2  3  1  0
  3  4  2  0
  5  3  1  6
  5 11  1  0
  5 29  1  0
  5  6  1  0
  6  7  1  0
  6 33  1  0
  6 34  1  0
  7  8  1  0
  7 35  1  0
  7 36  1  0
  8  9  1  0
  8 37  1  0
  8 38  1  0
  9 10  1  0
  9 39  1  0
  9 40  1  0
 10 11  2  0
 10 41  1  0
 11 12  1  0
 12 13  1  0
 12 17  1  0
 13 14  1  0
 13 42  1  0
 13 43  1  0
 14 16  1  0
 14 15  1  0
 14 44  1  0
 15 16  1  0
 15 45  1  0
 15 46  1  0
 16 47  1  0
 16 48  1  0
 17 18  2  0
 17 19  1  0
 19 20  1  0
 19 29  1  0
 19 49  1  6
 20 21  1  0
 20 50  1  0
 20 51  1  0
 21 22  2  0
 21 23  1  0
 23 24  1  0
 23 52  1  0
 24 25  1  0
 24 53  1  0
 24 54  1  0
 25 26  1  0
 25 55  1  0
 25 56  1  0
 26 27  1  0
 26 28  1  0
 26 57  1  0
 27 58  1  0
 27 59  1  0
 27 60  1  0
 28 61  1  0
 28 62  1  0
 28 63  1  0
 29 64  1  0
 29 65  1  0
M  END
>  <i_m_ct_stereo_status>  (292) 
1

>  <s_m_source_file>  (292) 
/var/tmp/pbs.5076255.sched01/tmpavn81tjv/78c0r2i372.sdf

>  <i_m_source_file_index>  (292) 
37

>  <i_lp_mmshare_version>  (292) 
48012

>  <i_f3d_flags>  (292) 
0

>  <s_epik_input>  (292) 
W0NIMl0xW0NIMl1bQ0gyXVtDSDJdW0NIXT1DKFtDQF0xMkMoPU8pT1tDSDNdKU4oW0NIMl1bQ0hdM1tDSDJdW0NIMl0zKUMoPU8pW0NASF0oW0NIMl0yKVtDSDJdQyg9TylbTkhdW0NIMl1bQ0gyXVtDSF0oW0NIM10pW0NIM10=

>  <s_epik_cmdline>  (292) 
J2VwaWtfcHl0aG9uJywgJy1waHQnLCAnMi4wJywgJy1waCcsICc3LjAnLCAnLXRuJywgJzgnLCAnLW1hJywgJzIwMCcsICctaW1hZScsICc8aW5maWxlLm1hZT4nLCAnLW9tYWUnLCAnPG91dGZpbGUubWFlPic=

>  <r_lp_tautomer_probability>  (292) 
1

>  <r_epik_Ionization_Penalty>  (292) 
2.42995e-08

>  <r_epik_Ionization_Penalty_Charging>  (292) 
0

>  <r_epik_Ionization_Penalty_Neutral>  (292) 
2.42995e-08

>  <r_epik_State_Penalty>  (292) 
-0

>  <r_epik_Charging_Adjusted_Penalty>  (292) 
0

>  <i_epik_Tot_Q>  (292) 
0

>  <i_epik_Tot_abs_Q>  (292) 
0

>  <s_epik_Chemistry_Notes>  (292) 
This compound has an ester and may undergo hydrolysis at high or low pH.

>  <s_lp_Force_Field>  (292) 
OPLS3e

>  <r_lp_Energy>  (292) 
39.0115

>  <b_lp_Chiralities_Consistent>  (292) 
1

>  <s_lp_Variant>  (292) 
86:0-1

>  <s_i_glide_gridfile>  (292) 
pfpi4k_grid

>  <i_i_glide_lignum>  (292) 
37

>  <i_i_glide_rotatable_bonds>  (292) 
10

>  <r_i_docking_score>  (292) 
-1.43262

>  <r_i_glide_ligand_efficiency>  (292) 
-0.0494005

>  <r_i_glide_ligand_efficiency_sa>  (292) 
-0.151774

>  <r_i_glide_ligand_efficiency_ln>  (292) 
-0.328033

>  <r_i_glide_gscore>  (292) 
-1.43262

>  <r_i_glide_lipo>  (292) 
-0.176721

>  <r_i_glide_hbond>  (292) 
-0.0130344

>  <r_i_glide_metal>  (292) 
-0

>  <r_i_glide_rewards>  (292) 
-0.657151

>  <r_i_glide_evdw>  (292) 
-29.0692

>  <r_i_glide_ecoul>  (292) 
-0.426454

>  <r_i_glide_erotb>  (292) 
0.96027

>  <r_i_glide_esite>  (292) 
-0.0285531

>  <r_i_glide_emodel>  (292) 
-30.8425

>  <r_i_glide_energy>  (292) 
-29.4956

>  <r_i_glide_einternal>  (292) 
2.26436

>  <r_i_glide_intrahb_reward>  (292) 
-0

>  <i_i_glide_confnum>  (292) 
2

>  <i_i_glide_posenum>  (292) 
31

>  <r_i_glide_eff_state_penalty>  (292) 
0

>  <ligand_id>  (292) 
86

>  <original_smiles>  (292) 
COC(=O)C12CCCCC=C1N(CC1CC1)C(=O)C(CC(=O)NCCC(C)C)C2

>  <smiles>  (292) 
[H]C1=C2N(C([H])([H])C3([H])C([H])([H])C3([H])[H])C(=O)C([H])(C([H])([H])C(=O)N([H])C([H])([H])C([H])([H])C([H])(C([H])([H])[H])C([H])([H])[H])C([H])([H])C2(C(=O)OC([H])([H])[H])C([H])([H])C([H])([H])C([H])([H])C1([H])[H]

$$$$
86:0:2
     RDKit          3D

 65 67  0  0  1  0  0  0  0  0999 V2000
    5.2261   -4.0754   -0.1041 C   0  0  0  0  0  0  0  0  0  0  0  0
    4.9827   -4.6697    1.1569 O   0  0  0  0  0  0  0  0  0  0  0  0
    3.8652   -5.3994    1.3595 C   0  0  0  0  0  0  0  0  0  0  0  0
    2.9713   -5.5712    0.5285 O   0  0  0  0  0  0  0  0  0  0  0  0
    3.7776   -5.9708    2.8054 C   0  0  2  0  0  0  0  0  0  0  0  0
    5.1329   -6.6105    3.2472 C   0  0  0  0  0  0  0  0  0  0  0  0
    5.8359   -7.6000    2.2938 C   0  0  0  0  0  0  0  0  0  0  0  0
    5.1134   -8.9313    2.1022 C   0  0  0  0  0  0  0  0  0  0  0  0
    3.7610   -8.7838    1.4061 C   0  0  0  0  0  0  0  0  0  0  0  0
    2.6795   -8.2347    2.3129 C   0  0  0  0  0  0  0  0  0  0  0  0
    2.6212   -7.0153    2.9088 C   0  0  0  0  0  0  0  0  0  0  0  0
    1.5071   -6.6870    3.7493 N   0  0  0  0  0  0  0  0  0  0  0  0
    0.6047   -7.7633    4.2253 C   0  0  0  0  0  0  0  0  0  0  0  0
   -0.5345   -8.1477    3.2848 C   0  0  0  0  0  0  0  0  0  0  0  0
   -1.7817   -7.3058    3.1805 C   0  0  0  0  0  0  0  0  0  0  0  0
   -1.8415   -8.6504    3.8508 C   0  0  0  0  0  0  0  0  0  0  0  0
    1.1875   -5.4089    4.1076 C   0  0  0  0  0  0  0  0  0  0  0  0
    0.2008   -5.1352    4.7958 O   0  0  0  0  0  0  0  0  0  0  0  0
    2.0897   -4.2580    3.6542 C   0  0  1  0  0  0  0  0  0  0  0  0
    1.8267   -2.9458    4.4494 C   0  0  0  0  0  0  0  0  0  0  0  0
    2.4783   -1.6948    3.8484 C   0  0  0  0  0  0  0  0  0  0  0  0
    2.9237   -1.7072    2.7027 O   0  0  0  0  0  0  0  0  0  0  0  0
    2.5320   -0.6194    4.6496 N   0  0  0  0  0  0  0  0  0  0  0  0
    3.1511    0.6618    4.3228 C   0  0  0  0  0  0  0  0  0  0  0  0
    2.1122    1.7990    4.2435 C   0  0  0  0  0  0  0  0  0  0  0  0
    2.7171    3.1841    3.9230 C   0  0  0  0  0  0  0  0  0  0  0  0
    3.7153    3.6539    4.9949 C   0  0  0  0  0  0  0  0  0  0  0  0
    1.6210    4.2454    3.7247 C   0  0  0  0  0  0  0  0  0  0  0  0
    3.5349   -4.7657    3.7572 C   0  0  0  0  0  0  0  0  0  0  0  0
    6.1763   -3.5420   -0.0770 H   0  0  0  0  0  0  0  0  0  0  0  0
    4.4446   -3.3609   -0.3582 H   0  0  0  0  0  0  0  0  0  0  0  0
    5.2866   -4.8316   -0.8855 H   0  0  0  0  0  0  0  0  0  0  0  0
    5.8406   -5.8000    3.4318 H   0  0  0  0  0  0  0  0  0  0  0  0
    5.0013   -7.0899    4.2189 H   0  0  0  0  0  0  0  0  0  0  0  0
    6.0441   -7.1407    1.3290 H   0  0  0  0  0  0  0  0  0  0  0  0
    6.8121   -7.8200    2.7177 H   0  0  0  0  0  0  0  0  0  0  0  0
    5.7393   -9.5724    1.4820 H   0  0  0  0  0  0  0  0  0  0  0  0
    4.9974   -9.4497    3.0534 H   0  0  0  0  0  0  0  0  0  0  0  0
    3.8367   -8.1943    0.4913 H   0  0  0  0  0  0  0  0  0  0  0  0
    3.4297   -9.7775    1.0951 H   0  0  0  0  0  0  0  0  0  0  0  0
    1.8907   -8.9588    2.4321 H   0  0  0  0  0  0  0  0  0  0  0  0
    1.1817   -8.6582    4.4597 H   0  0  0  0  0  0  0  0  0  0  0  0
    0.1669   -7.5088    5.1936 H   0  0  0  0  0  0  0  0  0  0  0  0
   -0.2218   -8.6271    2.3591 H   0  0  0  0  0  0  0  0  0  0  0  0
   -1.8666   -6.4282    3.8149 H   0  0  0  0  0  0  0  0  0  0  0  0
   -2.2266   -7.2363    2.1937 H   0  0  0  0  0  0  0  0  0  0  0  0
   -2.3321   -9.4529    3.3071 H   0  0  0  0  0  0  0  0  0  0  0  0
   -1.9544   -8.6613    4.9323 H   0  0  0  0  0  0  0  0  0  0  0  0
    1.8325   -4.0617    2.6103 H   0  0  0  0  0  0  0  0  0  0  0  0
    0.7562   -2.7281    4.4837 H   0  0  0  0  0  0  0  0  0  0  0  0
    2.1466   -3.0647    5.4882 H   0  0  0  0  0  0  0  0  0  0  0  0
    2.1702   -0.7182    5.5876 H   0  0  0  0  0  0  0  0  0  0  0  0
    3.8763    0.8533    5.1102 H   0  0  0  0  0  0  0  0  0  0  0  0
    3.7237    0.6159    3.3957 H   0  0  0  0  0  0  0  0  0  0  0  0
    1.3835    1.5437    3.4741 H   0  0  0  0  0  0  0  0  0  0  0  0
    1.5529    1.8513    5.1764 H   0  0  0  0  0  0  0  0  0  0  0  0
    3.2490    3.0995    2.9755 H   0  0  0  0  0  0  0  0  0  0  0  0
    3.2305    3.7519    5.9663 H   0  0  0  0  0  0  0  0  0  0  0  0
    4.1366    4.6235    4.7331 H   0  0  0  0  0  0  0  0  0  0  0  0
    4.5560    2.9711    5.1061 H   0  0  0  0  0  0  0  0  0  0  0  0
    0.9991    4.3546    4.6159 H   0  0  0  0  0  0  0  0  0  0  0  0
    0.9712    3.9909    2.8842 H   0  0  0  0  0  0  0  0  0  0  0  0
    2.0600    5.2212    3.5076 H   0  0  0  0  0  0  0  0  0  0  0  0
    3.7233   -5.0762    4.7912 H   0  0  0  0  0  0  0  0  0  0  0  0
    4.2435   -3.9572    3.5595 H   0  0  0  0  0  0  0  0  0  0  0  0
  1  2  1  0
  1 30  1  0
  1 31  1  0
  1 32  1  0
  2  3  1  0
  3  4  2  0
  5  3  1  6
  5 11  1  0
  5 29  1  0
  5  6  1  0
  6  7  1  0
  6 33  1  0
  6 34  1  0
  7  8  1  0
  7 35  1  0
  7 36  1  0
  8  9  1  0
  8 37  1  0
  8 38  1  0
  9 10  1  0
  9 39  1  0
  9 40  1  0
 10 11  2  0
 10 41  1  0
 11 12  1  0
 12 13  1  0
 12 17  1  0
 13 14  1  0
 13 42  1  0
 13 43  1  0
 14 16  1  0
 14 15  1  0
 14 44  1  0
 15 16  1  0
 15 45  1  0
 15 46  1  0
 16 47  1  0
 16 48  1  0
 17 18  2  0
 17 19  1  0
 19 20  1  0
 19 29  1  0
 19 49  1  6
 20 21  1  0
 20 50  1  0
 20 51  1  0
 21 22  2  0
 21 23  1  0
 23 24  1  0
 23 52  1  0
 24 25  1  0
 24 53  1  0
 24 54  1  0
 25 26  1  0
 25 55  1  0
 25 56  1  0
 26 27  1  0
 26 28  1  0
 26 57  1  0
 27 58  1  0
 27 59  1  0
 27 60  1  0
 28 61  1  0
 28 62  1  0
 28 63  1  0
 29 64  1  0
 29 65  1  0
M  END
>  <i_m_ct_stereo_status>  (293) 
1

>  <s_m_source_file>  (293) 
/var/tmp/pbs.5076255.sched01/tmpavn81tjv/78c0r2i372.sdf

>  <i_m_source_file_index>  (293) 
37

>  <i_lp_mmshare_version>  (293) 
48012

>  <i_f3d_flags>  (293) 
0

>  <s_epik_input>  (293) 
W0NIMl0xW0NIMl1bQ0gyXVtDSDJdW0NIXT1DKFtDQF0xMkMoPU8pT1tDSDNdKU4oW0NIMl1bQ0hdM1tDSDJdW0NIMl0zKUMoPU8pW0NASF0oW0NIMl0yKVtDSDJdQyg9TylbTkhdW0NIMl1bQ0gyXVtDSF0oW0NIM10pW0NIM10=

>  <s_epik_cmdline>  (293) 
J2VwaWtfcHl0aG9uJywgJy1waHQnLCAnMi4wJywgJy1waCcsICc3LjAnLCAnLXRuJywgJzgnLCAnLW1hJywgJzIwMCcsICctaW1hZScsICc8aW5maWxlLm1hZT4nLCAnLW9tYWUnLCAnPG91dGZpbGUubWFlPic=

>  <r_lp_tautomer_probability>  (293) 
1

>  <r_epik_Ionization_Penalty>  (293) 
2.42995e-08

>  <r_epik_Ionization_Penalty_Charging>  (293) 
0

>  <r_epik_Ionization_Penalty_Neutral>  (293) 
2.42995e-08

>  <r_epik_State_Penalty>  (293) 
-0

>  <r_epik_Charging_Adjusted_Penalty>  (293) 
0

>  <i_epik_Tot_Q>  (293) 
0

>  <i_epik_Tot_abs_Q>  (293) 
0

>  <s_epik_Chemistry_Notes>  (293) 
This compound has an ester and may undergo hydrolysis at high or low pH.

>  <s_lp_Force_Field>  (293) 
OPLS3e

>  <r_lp_Energy>  (293) 
39.0115

>  <b_lp_Chiralities_Consistent>  (293) 
1

>  <s_lp_Variant>  (293) 
86:0-1

>  <s_i_glide_gridfile>  (293) 
pfpi4k_grid

>  <i_i_glide_lignum>  (293) 
37

>  <i_i_glide_rotatable_bonds>  (293) 
10

>  <r_i_docking_score>  (293) 
-0.970551

>  <r_i_glide_ligand_efficiency>  (293) 
-0.0334673

>  <r_i_glide_ligand_efficiency_sa>  (293) 
-0.102822

>  <r_i_glide_ligand_efficiency_ln>  (293) 
-0.222232

>  <r_i_glide_gscore>  (293) 
-0.970551

>  <r_i_glide_lipo>  (293) 
-0.0891965

>  <r_i_glide_hbond>  (293) 
0

>  <r_i_glide_metal>  (293) 
-0

>  <r_i_glide_rewards>  (293) 
-0.680182

>  <r_i_glide_evdw>  (293) 
-23.1032

>  <r_i_glide_ecoul>  (293) 
0.0907072

>  <r_i_glide_erotb>  (293) 
0.96027

>  <r_i_glide_esite>  (293) 
-0.019887

>  <r_i_glide_emodel>  (293) 
-24.0473

>  <r_i_glide_energy>  (293) 
-23.0125

>  <r_i_glide_einternal>  (293) 
1.0482

>  <r_i_glide_intrahb_reward>  (293) 
-0

>  <i_i_glide_confnum>  (293) 
3

>  <i_i_glide_posenum>  (293) 
14

>  <r_i_glide_eff_state_penalty>  (293) 
0

>  <ligand_id>  (293) 
86

>  <original_smiles>  (293) 
COC(=O)C12CCCCC=C1N(CC1CC1)C(=O)C(CC(=O)NCCC(C)C)C2

>  <smiles>  (293) 
[H]C1=C2N(C([H])([H])C3([H])C([H])([H])C3([H])[H])C(=O)C([H])(C([H])([H])C(=O)N([H])C([H])([H])C([H])([H])C([H])(C([H])([H])[H])C([H])([H])[H])C([H])([H])C2(C(=O)OC([H])([H])[H])C([H])([H])C([H])([H])C([H])([H])C1([H])[H]

$$$$
87:0:0
     RDKit          3D

 54 59  0  0  1  0  0  0  0  0999 V2000
    4.5309  -12.0034    4.2397 C   0  0  0  0  0  0  0  0  0  0  0  0
    3.6493  -10.7688    4.5122 C   0  0  2  0  0  0  0  0  0  0  0  0
    2.2013  -11.2314    4.7562 C   0  0  0  0  0  0  0  0  0  0  0  0
    1.1910  -10.1115    5.0669 C   0  0  1  0  0  0  0  0  0  0  0  0
    1.2559   -9.6515    6.4586 N   0  0  0  0  0  0  0  0  0  0  0  0
    2.2602   -9.4398    7.3265 C   0  0  0  0  0  0  0  0  0  0  0  0
    1.8171   -9.0374    8.5108 N   0  0  0  0  0  0  0  0  0  0  0  0
    0.4470   -9.0270    8.3542 N   0  0  0  0  0  0  0  0  0  0  0  0
    0.1115   -9.3757    7.1496 N   0  0  0  0  0  0  0  0  0  0  0  0
    1.1772   -9.0200    3.9258 C   0  0  1  0  0  0  0  0  0  0  0  0
    0.3185   -9.6391    2.7833 C   0  0  0  0  0  0  0  0  0  0  0  0
    0.6191   -7.6293    4.3928 C   0  0  1  0  0  0  0  0  0  0  0  0
    1.6832   -7.1455    5.1865 O   0  0  0  0  0  0  0  0  0  0  0  0
    2.8934   -7.5278    4.6126 C   0  0  2  0  0  0  0  0  0  0  0  0
    3.7011   -6.4495    4.2741 O   0  0  0  0  0  0  0  0  0  0  0  0
    3.7321   -5.9251    2.9633 C   0  0  2  0  0  0  0  0  0  0  0  0
    2.4317   -5.2234    2.4485 C   0  0  0  0  0  0  0  0  0  0  0  0
    1.1694   -5.2364    3.3496 C   0  0  0  0  0  0  0  0  0  0  0  0
    0.3258   -6.5296    3.3277 C   0  0  0  0  0  0  0  0  0  0  0  0
   -0.5779   -6.6590    2.4965 O   0  0  0  0  0  0  0  0  0  0  0  0
    4.4778   -6.8945    1.9869 C   0  0  1  0  0  0  0  0  0  0  0  0
    5.1056   -6.0469    0.8582 C   0  0  0  0  0  0  0  0  0  0  0  0
    5.5805   -7.7863    2.6064 C   0  0  0  0  0  0  0  0  0  0  0  0
    5.1827   -8.9719    3.5285 C   0  0  0  0  0  0  0  0  0  0  0  0
    3.7699   -9.6499    3.4290 C   0  0  2  0  0  0  0  0  0  0  0  0
    2.6142   -8.5925    3.4972 C   0  0  1  0  0  0  0  0  0  0  0  0
    2.3938   -7.9936    2.2122 O   0  0  0  0  0  0  0  0  0  0  0  0
    3.6445   -7.8696    1.4077 O   0  0  0  0  0  0  0  0  0  0  0  0
    4.2773  -12.4922    3.2984 H   0  0  0  0  0  0  0  0  0  0  0  0
    4.4035  -12.7396    5.0331 H   0  0  0  0  0  0  0  0  0  0  0  0
    5.5878  -11.7543    4.2275 H   0  0  0  0  0  0  0  0  0  0  0  0
    4.0495  -10.3718    5.4321 H   0  0  0  0  0  0  0  0  0  0  0  0
    1.8626  -11.8088    3.8946 H   0  0  0  0  0  0  0  0  0  0  0  0
    2.2020  -11.9376    5.5854 H   0  0  0  0  0  0  0  0  0  0  0  0
    0.2258  -10.6159    5.0241 H   0  0  0  0  0  0  0  0  0  0  0  0
    3.3089   -9.5535    7.1271 H   0  0  0  0  0  0  0  0  0  0  0  0
    0.2013   -8.9899    1.9123 H   0  0  0  0  0  0  0  0  0  0  0  0
   -0.6955   -9.8554    3.1349 H   0  0  0  0  0  0  0  0  0  0  0  0
    0.7331  -10.5779    2.4066 H   0  0  0  0  0  0  0  0  0  0  0  0
   -0.2801   -7.7573    4.9893 H   0  0  0  0  0  0  0  0  0  0  0  0
    3.4261   -7.9841    5.4411 H   0  0  0  0  0  0  0  0  0  0  0  0
    4.4256   -5.0993    3.1225 H   0  0  0  0  0  0  0  0  0  0  0  0
    2.6780   -4.1754    2.2771 H   0  0  0  0  0  0  0  0  0  0  0  0
    2.1785   -5.5925    1.4569 H   0  0  0  0  0  0  0  0  0  0  0  0
    1.4170   -4.9579    4.3724 H   0  0  0  0  0  0  0  0  0  0  0  0
    0.5155   -4.4459    2.9954 H   0  0  0  0  0  0  0  0  0  0  0  0
    5.8746   -5.3837    1.2553 H   0  0  0  0  0  0  0  0  0  0  0  0
    4.3735   -5.4238    0.3457 H   0  0  0  0  0  0  0  0  0  0  0  0
    5.5816   -6.6675    0.1082 H   0  0  0  0  0  0  0  0  0  0  0  0
    6.1361   -8.2188    1.7757 H   0  0  0  0  0  0  0  0  0  0  0  0
    6.2960   -7.1548    3.1329 H   0  0  0  0  0  0  0  0  0  0  0  0
    5.9345   -9.7356    3.3608 H   0  0  0  0  0  0  0  0  0  0  0  0
    5.3617   -8.6615    4.5560 H   0  0  0  0  0  0  0  0  0  0  0  0
    3.6868  -10.1529    2.4600 H   0  0  0  0  0  0  0  0  0  0  0  0
  1  2  1  0
  1 29  1  0
  1 30  1  0
  1 31  1  0
  2 25  1  0
  2  3  1  0
  2 32  1  1
  3  4  1  0
  3 33  1  0
  3 34  1  0
  4  5  1  0
  4 10  1  0
  4 35  1  1
  5  9  1  0
  5  6  1  0
  6  7  2  0
  6 36  1  0
  7  8  1  0
  8  9  2  0
 10 26  1  0
 10 11  1  6
 10 12  1  0
 11 37  1  0
 11 38  1  0
 11 39  1  0
 12 19  1  0
 12 13  1  0
 12 40  1  1
 13 14  1  0
 14 26  1  0
 14 15  1  0
 14 41  1  1
 15 16  1  0
 16 17  1  0
 16 21  1  0
 16 42  1  1
 17 18  1  0
 17 43  1  0
 17 44  1  0
 18 19  1  0
 18 45  1  0
 18 46  1  0
 19 20  2  0
 21 28  1  0
 21 22  1  6
 21 23  1  0
 22 47  1  0
 22 48  1  0
 22 49  1  0
 23 24  1  0
 23 50  1  0
 23 51  1  0
 24 25  1  0
 24 52  1  0
 24 53  1  0
 25 26  1  0
 25 54  1  6
 26 27  1  6
 27 28  1  0
M  END
>  <i_m_ct_stereo_status>  (294) 
1

>  <s_m_source_file>  (294) 
/var/tmp/pbs.5076255.sched01/tmpavn81tjv/78c0r2i372.sdf

>  <i_m_source_file_index>  (294) 
38

>  <i_lp_mmshare_version>  (294) 
48012

>  <i_f3d_flags>  (294) 
0

>  <s_epik_input>  (294) 
bjFubltjSF1uMVtDQEBIXTJbQ0gyXVtDQEBIXShbQ0gzXSlbQ0BASF0zW0NIMl1bQ0gyXVtDQEBdKFtDSDNdKShPTzQpW0NAQEhdKFtDSDJdW0NIMl1DNT1PKU9bQ0BIXTZPW0NAQEhdNVtDQF0yKFtDQEBdMzQ2KVtDSDNd

>  <s_epik_cmdline>  (294) 
J2VwaWtfcHl0aG9uJywgJy1waHQnLCAnMi4wJywgJy1waCcsICc3LjAnLCAnLXRuJywgJzgnLCAnLW1hJywgJzIwMCcsICctaW1hZScsICc8aW5maWxlLm1hZT4nLCAnLW9tYWUnLCAnPG91dGZpbGUubWFlPic=

>  <r_lp_tautomer_probability>  (294) 
1

>  <r_epik_Ionization_Penalty>  (294) 
8.34432e-09

>  <r_epik_Ionization_Penalty_Charging>  (294) 
0

>  <r_epik_Ionization_Penalty_Neutral>  (294) 
8.34432e-09

>  <r_epik_State_Penalty>  (294) 
-0

>  <r_epik_Charging_Adjusted_Penalty>  (294) 
0

>  <i_epik_Tot_Q>  (294) 
0

>  <i_epik_Tot_abs_Q>  (294) 
0

>  <s_epik_Chemistry_Notes>  (294) 
This compound contains an acetal/aminal-like group ( X-CH(R)-Y where X, Y are N, S, or O) that may be acid/base labile, releasing an aldehyde.

>  <s_lp_Force_Field>  (294) 
OPLS3e

>  <r_lp_Energy>  (294) 
66.0443

>  <b_lp_Chiralities_Consistent>  (294) 
1

>  <s_lp_Variant>  (294) 
87:0-1

>  <s_i_glide_gridfile>  (294) 
pfpi4k_grid

>  <i_i_glide_lignum>  (294) 
38

>  <i_i_glide_rotatable_bonds>  (294) 
1

>  <r_i_docking_score>  (294) 
-3.49378

>  <r_i_glide_ligand_efficiency>  (294) 
-0.124778

>  <r_i_glide_ligand_efficiency_sa>  (294) 
-0.378899

>  <r_i_glide_ligand_efficiency_ln>  (294) 
-0.806467

>  <r_i_glide_gscore>  (294) 
-3.49378

>  <r_i_glide_lipo>  (294) 
-0.15192

>  <r_i_glide_hbond>  (294) 
-0.16

>  <r_i_glide_metal>  (294) 
-0

>  <r_i_glide_rewards>  (294) 
-0.747044

>  <r_i_glide_evdw>  (294) 
-24.2095

>  <r_i_glide_ecoul>  (294) 
-6.22329

>  <r_i_glide_erotb>  (294) 
0.12795

>  <r_i_glide_esite>  (294) 
-0.418797

>  <r_i_glide_emodel>  (294) 
-37.0761

>  <r_i_glide_energy>  (294) 
-30.4328

>  <r_i_glide_einternal>  (294) 
0.653438

>  <r_i_glide_intrahb_reward>  (294) 
-0

>  <i_i_glide_confnum>  (294) 
4

>  <i_i_glide_posenum>  (294) 
1

>  <r_i_glide_eff_state_penalty>  (294) 
0

>  <ligand_id>  (294) 
87

>  <original_smiles>  (294) 
CC1CC(n2cnnn2)C2(C)C3OC4OC(CCC3=O)C3(C)CCC1C42OO3

>  <smiles>  (294) 
[H]c1nnnn1C1([H])C([H])([H])C([H])(C([H])([H])[H])C2([H])C([H])([H])C([H])([H])C3(C([H])([H])[H])OOC24C2([H])OC([H])(C(=O)C([H])([H])C([H])([H])C3([H])O2)C14C([H])([H])[H]

$$$$
87:0:1
     RDKit          3D

 54 59  0  0  1  0  0  0  0  0999 V2000
    4.4522  -12.0380    4.0688 C   0  0  0  0  0  0  0  0  0  0  0  0
    3.6383  -10.7594    4.3602 C   0  0  2  0  0  0  0  0  0  0  0  0
    2.1550  -11.1426    4.4879 C   0  0  0  0  0  0  0  0  0  0  0  0
    1.2031   -9.9670    4.7755 C   0  0  1  0  0  0  0  0  0  0  0  0
    1.1457   -9.5835    6.1878 N   0  0  0  0  0  0  0  0  0  0  0  0
    0.0798   -9.4400    6.9871 C   0  0  0  0  0  0  0  0  0  0  0  0
    0.4174   -9.0505    8.2069 N   0  0  0  0  0  0  0  0  0  0  0  0
    1.7957   -8.9904    8.1507 N   0  0  0  0  0  0  0  0  0  0  0  0
    2.2288   -9.3250    6.9692 N   0  0  0  0  0  0  0  0  0  0  0  0
    1.3362   -8.8217    3.6976 C   0  0  1  0  0  0  0  0  0  0  0  0
    0.4998   -9.3274    2.4897 C   0  0  0  0  0  0  0  0  0  0  0  0
    0.8527   -7.4155    4.1965 C   0  0  1  0  0  0  0  0  0  0  0  0
    1.8992   -7.0405    5.0649 O   0  0  0  0  0  0  0  0  0  0  0  0
    3.1108   -7.4796    4.5366 C   0  0  2  0  0  0  0  0  0  0  0  0
    4.0054   -6.4483    4.2910 O   0  0  0  0  0  0  0  0  0  0  0  0
    4.1400   -5.8743    3.0111 C   0  0  2  0  0  0  0  0  0  0  0  0
    2.9202   -5.0578    2.4654 C   0  0  0  0  0  0  0  0  0  0  0  0
    1.6098   -5.0173    3.2974 C   0  0  0  0  0  0  0  0  0  0  0  0
    0.6883   -6.2542    3.1674 C   0  0  0  0  0  0  0  0  0  0  0  0
   -0.1590   -6.2904    2.2828 O   0  0  0  0  0  0  0  0  0  0  0  0
    4.8696   -6.8535    2.0321 C   0  0  1  0  0  0  0  0  0  0  0  0
    5.6164   -6.0013    0.9826 C   0  0  0  0  0  0  0  0  0  0  0  0
    5.8726   -7.8509    2.6639 C   0  0  0  0  0  0  0  0  0  0  0  0
    5.3500   -9.0461    3.5127 C   0  0  0  0  0  0  0  0  0  0  0  0
    3.9001   -9.6154    3.3253 C   0  0  2  0  0  0  0  0  0  0  0  0
    2.8188   -8.4786    3.3641 C   0  0  1  0  0  0  0  0  0  0  0  0
    2.7083   -7.8152    2.0955 O   0  0  0  0  0  0  0  0  0  0  0  0
    4.0048   -7.7420    1.3604 O   0  0  0  0  0  0  0  0  0  0  0  0
    4.2130  -12.4515    3.0888 H   0  0  0  0  0  0  0  0  0  0  0  0
    4.2373  -12.8146    4.8036 H   0  0  0  0  0  0  0  0  0  0  0  0
    5.5264  -11.8698    4.1067 H   0  0  0  0  0  0  0  0  0  0  0  0
    3.9622  -10.4134    5.3383 H   0  0  0  0  0  0  0  0  0  0  0  0
    1.8453  -11.6495    3.5740 H   0  0  0  0  0  0  0  0  0  0  0  0
    2.0407  -11.8897    5.2757 H   0  0  0  0  0  0  0  0  0  0  0  0
    0.2184  -10.4095    4.6324 H   0  0  0  0  0  0  0  0  0  0  0  0
   -0.9362   -9.6152    6.6811 H   0  0  0  0  0  0  0  0  0  0  0  0
    0.4715   -8.6267    1.6551 H   0  0  0  0  0  0  0  0  0  0  0  0
   -0.5422   -9.4930    2.7743 H   0  0  0  0  0  0  0  0  0  0  0  0
    0.8706  -10.2726    2.0832 H   0  0  0  0  0  0  0  0  0  0  0  0
   -0.0855   -7.5041    4.7417 H   0  0  0  0  0  0  0  0  0  0  0  0
    3.5826   -8.0014    5.3611 H   0  0  0  0  0  0  0  0  0  0  0  0
    4.8793   -5.1102    3.2469 H   0  0  0  0  0  0  0  0  0  0  0  0
    3.2494   -4.0251    2.3541 H   0  0  0  0  0  0  0  0  0  0  0  0
    2.6954   -5.3683    1.4465 H   0  0  0  0  0  0  0  0  0  0  0  0
    1.8207   -4.8001    4.3434 H   0  0  0  0  0  0  0  0  0  0  0  0
    1.0183   -4.1747    2.9425 H   0  0  0  0  0  0  0  0  0  0  0  0
    6.4074   -5.4112    1.4480 H   0  0  0  0  0  0  0  0  0  0  0  0
    4.9586   -5.3077    0.4592 H   0  0  0  0  0  0  0  0  0  0  0  0
    6.0889   -6.6304    0.2382 H   0  0  0  0  0  0  0  0  0  0  0  0
    6.4432   -8.2839    1.8430 H   0  0  0  0  0  0  0  0  0  0  0  0
    6.6004   -7.2969    3.2538 H   0  0  0  0  0  0  0  0  0  0  0  0
    6.0550   -9.8544    3.3442 H   0  0  0  0  0  0  0  0  0  0  0  0
    5.4981   -8.7937    4.5594 H   0  0  0  0  0  0  0  0  0  0  0  0
    3.8341  -10.0811    2.3382 H   0  0  0  0  0  0  0  0  0  0  0  0
  1  2  1  0
  1 29  1  0
  1 30  1  0
  1 31  1  0
  2 25  1  0
  2  3  1  0
  2 32  1  1
  3  4  1  0
  3 33  1  0
  3 34  1  0
  4  5  1  0
  4 10  1  0
  4 35  1  6
  5  9  1  0
  5  6  1  0
  6  7  2  0
  6 36  1  0
  7  8  1  0
  8  9  2  0
 10 26  1  0
 10 11  1  6
 10 12  1  0
 11 37  1  0
 11 38  1  0
 11 39  1  0
 12 19  1  0
 12 13  1  0
 12 40  1  1
 13 14  1  0
 14 26  1  0
 14 15  1  0
 14 41  1  1
 15 16  1  0
 16 17  1  0
 16 21  1  0
 16 42  1  1
 17 18  1  0
 17 43  1  0
 17 44  1  0
 18 19  1  0
 18 45  1  0
 18 46  1  0
 19 20  2  0
 21 28  1  0
 21 22  1  6
 21 23  1  0
 22 47  1  0
 22 48  1  0
 22 49  1  0
 23 24  1  0
 23 50  1  0
 23 51  1  0
 24 25  1  0
 24 52  1  0
 24 53  1  0
 25 26  1  0
 25 54  1  6
 26 27  1  6
 27 28  1  0
M  END
>  <i_m_ct_stereo_status>  (295) 
1

>  <s_m_source_file>  (295) 
/var/tmp/pbs.5076255.sched01/tmpavn81tjv/78c0r2i372.sdf

>  <i_m_source_file_index>  (295) 
38

>  <i_lp_mmshare_version>  (295) 
48012

>  <i_f3d_flags>  (295) 
0

>  <s_epik_input>  (295) 
bjFubltjSF1uMVtDQEBIXTJbQ0gyXVtDQEBIXShbQ0gzXSlbQ0BASF0zW0NIMl1bQ0gyXVtDQEBdKFtDSDNdKShPTzQpW0NAQEhdKFtDSDJdW0NIMl1DNT1PKU9bQ0BIXTZPW0NAQEhdNVtDQF0yKFtDQEBdMzQ2KVtDSDNd

>  <s_epik_cmdline>  (295) 
J2VwaWtfcHl0aG9uJywgJy1waHQnLCAnMi4wJywgJy1waCcsICc3LjAnLCAnLXRuJywgJzgnLCAnLW1hJywgJzIwMCcsICctaW1hZScsICc8aW5maWxlLm1hZT4nLCAnLW9tYWUnLCAnPG91dGZpbGUubWFlPic=

>  <r_lp_tautomer_probability>  (295) 
1

>  <r_epik_Ionization_Penalty>  (295) 
8.34432e-09

>  <r_epik_Ionization_Penalty_Charging>  (295) 
0

>  <r_epik_Ionization_Penalty_Neutral>  (295) 
8.34432e-09

>  <r_epik_State_Penalty>  (295) 
-0

>  <r_epik_Charging_Adjusted_Penalty>  (295) 
0

>  <i_epik_Tot_Q>  (295) 
0

>  <i_epik_Tot_abs_Q>  (295) 
0

>  <s_epik_Chemistry_Notes>  (295) 
This compound contains an acetal/aminal-like group ( X-CH(R)-Y where X, Y are N, S, or O) that may be acid/base labile, releasing an aldehyde.

>  <s_lp_Force_Field>  (295) 
OPLS3e

>  <r_lp_Energy>  (295) 
66.0443

>  <b_lp_Chiralities_Consistent>  (295) 
1

>  <s_lp_Variant>  (295) 
87:0-1

>  <s_i_glide_gridfile>  (295) 
pfpi4k_grid

>  <i_i_glide_lignum>  (295) 
38

>  <i_i_glide_rotatable_bonds>  (295) 
1

>  <r_i_docking_score>  (295) 
-3.45973

>  <r_i_glide_ligand_efficiency>  (295) 
-0.123562

>  <r_i_glide_ligand_efficiency_sa>  (295) 
-0.375206

>  <r_i_glide_ligand_efficiency_ln>  (295) 
-0.798607

>  <r_i_glide_gscore>  (295) 
-3.45973

>  <r_i_glide_lipo>  (295) 
-0.132513

>  <r_i_glide_hbond>  (295) 
-0.207688

>  <r_i_glide_metal>  (295) 
-0

>  <r_i_glide_rewards>  (295) 
-0.747044

>  <r_i_glide_evdw>  (295) 
-23.3815

>  <r_i_glide_ecoul>  (295) 
-6.32032

>  <r_i_glide_erotb>  (295) 
0.12795

>  <r_i_glide_esite>  (295) 
-0.383312

>  <r_i_glide_emodel>  (295) 
-36.2144

>  <r_i_glide_energy>  (295) 
-29.7018

>  <r_i_glide_einternal>  (295) 
0.139371

>  <r_i_glide_intrahb_reward>  (295) 
-0

>  <i_i_glide_confnum>  (295) 
1

>  <i_i_glide_posenum>  (295) 
7

>  <r_i_glide_eff_state_penalty>  (295) 
0

>  <ligand_id>  (295) 
87

>  <original_smiles>  (295) 
CC1CC(n2cnnn2)C2(C)C3OC4OC(CCC3=O)C3(C)CCC1C42OO3

>  <smiles>  (295) 
[H]c1nnnn1C1([H])C([H])([H])C([H])(C([H])([H])[H])C2([H])C([H])([H])C([H])([H])C3(C([H])([H])[H])OOC24C2([H])OC([H])(C(=O)C([H])([H])C([H])([H])C3([H])O2)C14C([H])([H])[H]

$$$$
87:0:2
     RDKit          3D

 54 59  0  0  1  0  0  0  0  0999 V2000
    0.8786   -7.2962    7.8033 C   0  0  0  0  0  0  0  0  0  0  0  0
    0.9432   -7.2220    6.2619 C   0  0  2  0  0  0  0  0  0  0  0  0
    1.0153   -8.6539    5.7029 C   0  0  0  0  0  0  0  0  0  0  0  0
    1.1003   -8.7520    4.1672 C   0  0  1  0  0  0  0  0  0  0  0  0
   -0.1988   -8.6401    3.5062 N   0  0  0  0  0  0  0  0  0  0  0  0
   -0.7627   -9.4453    2.5925 C   0  0  0  0  0  0  0  0  0  0  0  0
   -1.9540   -9.0035    2.2214 N   0  0  0  0  0  0  0  0  0  0  0  0
   -2.1300   -7.8644    2.9804 N   0  0  0  0  0  0  0  0  0  0  0  0
   -1.1082   -7.6607    3.7541 N   0  0  0  0  0  0  0  0  0  0  0  0
    2.3090   -7.9179    3.5799 C   0  0  1  0  0  0  0  0  0  0  0  0
    3.5574   -8.8273    3.8007 C   0  0  0  0  0  0  0  0  0  0  0  0
    2.1294   -7.5069    2.0716 C   0  0  1  0  0  0  0  0  0  0  0  0
    1.1580   -6.4824    2.1628 O   0  0  0  0  0  0  0  0  0  0  0  0
    1.3928   -5.7387    3.3181 C   0  0  2  0  0  0  0  0  0  0  0  0
    1.6389   -4.3988    3.0620 O   0  0  0  0  0  0  0  0  0  0  0  0
    2.9523   -3.8883    2.9777 C   0  0  2  0  0  0  0  0  0  0  0  0
    3.8270   -4.3716    1.7706 C   0  0  0  0  0  0  0  0  0  0  0  0
    3.2585   -5.4469    0.8036 C   0  0  0  0  0  0  0  0  0  0  0  0
    3.3414   -6.9112    1.2900 C   0  0  0  0  0  0  0  0  0  0  0  0
    4.3354   -7.5907    1.0372 O   0  0  0  0  0  0  0  0  0  0  0  0
    3.6183   -3.8231    4.3939 C   0  0  1  0  0  0  0  0  0  0  0  0
    4.6513   -2.6714    4.3905 C   0  0  0  0  0  0  0  0  0  0  0  0
    2.6672   -3.6273    5.5992 C   0  0  0  0  0  0  0  0  0  0  0  0
    1.7420   -4.7928    6.0558 C   0  0  0  0  0  0  0  0  0  0  0  0
    2.0851   -6.2906    5.7376 C   0  0  2  0  0  0  0  0  0  0  0  0
    2.4196   -6.5007    4.2191 C   0  0  1  0  0  0  0  0  0  0  0  0
    3.7748   -6.1369    3.9283 O   0  0  0  0  0  0  0  0  0  0  0  0
    4.2719   -5.0108    4.7699 O   0  0  0  0  0  0  0  0  0  0  0  0
    1.8052   -7.6841    8.2246 H   0  0  0  0  0  0  0  0  0  0  0  0
    0.0790   -7.9611    8.1295 H   0  0  0  0  0  0  0  0  0  0  0  0
    0.6828   -6.3303    8.2628 H   0  0  0  0  0  0  0  0  0  0  0  0
   -0.0065   -6.8022    5.9429 H   0  0  0  0  0  0  0  0  0  0  0  0
    1.8744   -9.1561    6.1460 H   0  0  0  0  0  0  0  0  0  0  0  0
    0.1480   -9.2242    6.0466 H   0  0  0  0  0  0  0  0  0  0  0  0
    1.3426   -9.7979    3.9986 H   0  0  0  0  0  0  0  0  0  0  0  0
   -0.3090  -10.3399    2.2049 H   0  0  0  0  0  0  0  0  0  0  0  0
    4.4937   -8.4044    3.4334 H   0  0  0  0  0  0  0  0  0  0  0  0
    3.4324   -9.7799    3.2767 H   0  0  0  0  0  0  0  0  0  0  0  0
    3.7191   -9.0675    4.8552 H   0  0  0  0  0  0  0  0  0  0  0  0
    1.7497   -8.3466    1.4942 H   0  0  0  0  0  0  0  0  0  0  0  0
    0.4275   -5.7059    3.8118 H   0  0  0  0  0  0  0  0  0  0  0  0
    2.7169   -2.8527    2.7294 H   0  0  0  0  0  0  0  0  0  0  0  0
    4.0433   -3.4951    1.1613 H   0  0  0  0  0  0  0  0  0  0  0  0
    4.8056   -4.6865    2.1271 H   0  0  0  0  0  0  0  0  0  0  0  0
    2.2407   -5.2023    0.5068 H   0  0  0  0  0  0  0  0  0  0  0  0
    3.8423   -5.4159   -0.1144 H   0  0  0  0  0  0  0  0  0  0  0  0
    4.1529   -1.7106    4.2515 H   0  0  0  0  0  0  0  0  0  0  0  0
    5.3799   -2.7716    3.5866 H   0  0  0  0  0  0  0  0  0  0  0  0
    5.1949   -2.6193    5.3311 H   0  0  0  0  0  0  0  0  0  0  0  0
    3.2962   -3.3817    6.4541 H   0  0  0  0  0  0  0  0  0  0  0  0
    2.0576   -2.7410    5.4290 H   0  0  0  0  0  0  0  0  0  0  0  0
    1.6551   -4.6878    7.1342 H   0  0  0  0  0  0  0  0  0  0  0  0
    0.7400   -4.5749    5.6963 H   0  0  0  0  0  0  0  0  0  0  0  0
    2.9830   -6.5658    6.2967 H   0  0  0  0  0  0  0  0  0  0  0  0
  1  2  1  0
  1 29  1  0
  1 30  1  0
  1 31  1  0
  2 25  1  0
  2  3  1  0
  2 32  1  6
  3  4  1  0
  3 33  1  0
  3 34  1  0
  4  5  1  0
  4 10  1  0
  4 35  1  1
  5  9  1  0
  5  6  1  0
  6  7  2  0
  6 36  1  0
  7  8  1  0
  8  9  2  0
 10 26  1  0
 10 11  1  6
 10 12  1  0
 11 37  1  0
 11 38  1  0
 11 39  1  0
 12 19  1  0
 12 13  1  0
 12 40  1  6
 13 14  1  0
 14 26  1  0
 14 15  1  0
 14 41  1  1
 15 16  1  0
 16 17  1  0
 16 21  1  0
 16 42  1  6
 17 18  1  0
 17 43  1  0
 17 44  1  0
 18 19  1  0
 18 45  1  0
 18 46  1  0
 19 20  2  0
 21 28  1  0
 21 22  1  6
 21 23  1  0
 22 47  1  0
 22 48  1  0
 22 49  1  0
 23 24  1  0
 23 50  1  0
 23 51  1  0
 24 25  1  0
 24 52  1  0
 24 53  1  0
 25 26  1  0
 25 54  1  1
 26 27  1  1
 27 28  1  0
M  END
>  <i_m_ct_stereo_status>  (296) 
1

>  <s_m_source_file>  (296) 
/var/tmp/pbs.5076255.sched01/tmpavn81tjv/78c0r2i372.sdf

>  <i_m_source_file_index>  (296) 
38

>  <i_lp_mmshare_version>  (296) 
48012

>  <i_f3d_flags>  (296) 
0

>  <s_epik_input>  (296) 
bjFubltjSF1uMVtDQEBIXTJbQ0gyXVtDQEBIXShbQ0gzXSlbQ0BASF0zW0NIMl1bQ0gyXVtDQEBdKFtDSDNdKShPTzQpW0NAQEhdKFtDSDJdW0NIMl1DNT1PKU9bQ0BIXTZPW0NAQEhdNVtDQF0yKFtDQEBdMzQ2KVtDSDNd

>  <s_epik_cmdline>  (296) 
J2VwaWtfcHl0aG9uJywgJy1waHQnLCAnMi4wJywgJy1waCcsICc3LjAnLCAnLXRuJywgJzgnLCAnLW1hJywgJzIwMCcsICctaW1hZScsICc8aW5maWxlLm1hZT4nLCAnLW9tYWUnLCAnPG91dGZpbGUubWFlPic=

>  <r_lp_tautomer_probability>  (296) 
1

>  <r_epik_Ionization_Penalty>  (296) 
8.34432e-09

>  <r_epik_Ionization_Penalty_Charging>  (296) 
0

>  <r_epik_Ionization_Penalty_Neutral>  (296) 
8.34432e-09

>  <r_epik_State_Penalty>  (296) 
-0

>  <r_epik_Charging_Adjusted_Penalty>  (296) 
0

>  <i_epik_Tot_Q>  (296) 
0

>  <i_epik_Tot_abs_Q>  (296) 
0

>  <s_epik_Chemistry_Notes>  (296) 
This compound contains an acetal/aminal-like group ( X-CH(R)-Y where X, Y are N, S, or O) that may be acid/base labile, releasing an aldehyde.

>  <s_lp_Force_Field>  (296) 
OPLS3e

>  <r_lp_Energy>  (296) 
66.0443

>  <b_lp_Chiralities_Consistent>  (296) 
1

>  <s_lp_Variant>  (296) 
87:0-1

>  <s_i_glide_gridfile>  (296) 
pfpi4k_grid

>  <i_i_glide_lignum>  (296) 
38

>  <i_i_glide_rotatable_bonds>  (296) 
1

>  <r_i_docking_score>  (296) 
-2.8007

>  <r_i_glide_ligand_efficiency>  (296) 
-0.100025

>  <r_i_glide_ligand_efficiency_sa>  (296) 
-0.303734

>  <r_i_glide_ligand_efficiency_ln>  (296) 
-0.646483

>  <r_i_glide_gscore>  (296) 
-2.8007

>  <r_i_glide_lipo>  (296) 
-0.0308292

>  <r_i_glide_hbond>  (296) 
0

>  <r_i_glide_metal>  (296) 
-0

>  <r_i_glide_rewards>  (296) 
-0.978442

>  <r_i_glide_evdw>  (296) 
-26.8465

>  <r_i_glide_ecoul>  (296) 
-2.71755

>  <r_i_glide_erotb>  (296) 
0.12795

>  <r_i_glide_esite>  (296) 
-0.169419

>  <r_i_glide_emodel>  (296) 
-34.9477

>  <r_i_glide_energy>  (296) 
-29.564

>  <r_i_glide_einternal>  (296) 
0.101743

>  <r_i_glide_intrahb_reward>  (296) 
-0

>  <i_i_glide_confnum>  (296) 
1

>  <i_i_glide_posenum>  (296) 
31

>  <r_i_glide_eff_state_penalty>  (296) 
0

>  <ligand_id>  (296) 
87

>  <original_smiles>  (296) 
CC1CC(n2cnnn2)C2(C)C3OC4OC(CCC3=O)C3(C)CCC1C42OO3

>  <smiles>  (296) 
[H]c1nnnn1C1([H])C([H])([H])C([H])(C([H])([H])[H])C2([H])C([H])([H])C([H])([H])C3(C([H])([H])[H])OOC24C2([H])OC([H])(C(=O)C([H])([H])C([H])([H])C3([H])O2)C14C([H])([H])[H]

$$$$
88:0:0
     RDKit          3D

 49 53  0  0  1  0  0  0  0  0999 V2000
    2.4700   -5.9948    0.9724 C   0  0  0  0  0  0  0  0  0  0  0  0
    3.6930   -5.8005    0.4351 C   0  0  0  0  0  0  0  0  0  0  0  0
    4.6074   -6.9863    0.3216 C   0  0  0  0  0  0  0  0  0  0  0  0
    5.8538   -6.8038    1.1964 C   0  0  0  0  0  0  0  0  0  0  0  0
    6.5472   -5.4525    0.9596 C   0  0  0  0  0  0  0  0  0  0  0  0
    7.7758   -5.3348    1.0450 O   0  0  0  0  0  0  0  0  0  0  0  0
    5.6942   -4.2179    0.6417 C   0  0  2  0  0  0  0  0  0  0  0  0
    5.4557   -3.3180    1.8875 C   0  0  2  0  0  0  0  0  0  0  0  0
    4.3562   -3.9344    2.7708 C   0  0  0  0  0  0  0  0  0  0  0  0
    3.1437   -3.4314    2.1685 O   0  0  0  0  0  0  0  0  0  0  0  0
    3.4461   -2.4926    1.1188 C   0  0  1  0  0  0  0  0  0  0  0  0
    4.8300   -1.9544    1.5706 C   0  0  1  0  0  0  0  0  0  0  0  0
    4.7065   -1.0564    2.8326 C   0  0  0  0  0  0  0  0  0  0  0  0
    5.5161   -1.0697    0.4775 C   0  0  1  0  0  0  0  0  0  0  0  0
    6.8461   -1.4359    0.1475 O   0  0  0  0  0  0  0  0  0  0  0  0
    4.6854   -0.9546   -0.7848 C   0  0  0  0  0  0  0  0  0  0  0  0
    4.2621   -2.3088   -1.3670 C   0  0  2  0  0  0  0  0  0  0  0  0
    3.3373   -2.0730   -2.5778 C   0  0  1  0  0  0  0  0  0  0  0  0
    4.1004   -1.9854   -3.9087 C   0  0  0  0  0  0  0  0  0  0  0  0
    2.3802   -3.2182   -2.6919 C   0  0  0  0  0  0  0  0  0  0  0  0
    1.9334   -3.5027   -1.0024 S   0  0  0  0  0  0  0  0  0  0  0  0
    3.5618   -3.2113   -0.2785 C   0  0  2  0  0  0  0  0  0  0  0  0
    4.3725   -4.5272   -0.1150 C   0  0  2  0  0  0  0  0  0  0  0  0
    1.7565   -5.1941    1.1017 H   0  0  0  0  0  0  0  0  0  0  0  0
    2.1803   -7.0053    1.2260 H   0  0  0  0  0  0  0  0  0  0  0  0
    4.0979   -7.9507    0.4924 H   0  0  0  0  0  0  0  0  0  0  0  0
    4.8497   -6.9357   -0.7327 H   0  0  0  0  0  0  0  0  0  0  0  0
    5.6141   -6.9435    2.2563 H   0  0  0  0  0  0  0  0  0  0  0  0
    6.5692   -7.5896    0.9158 H   0  0  0  0  0  0  0  0  0  0  0  0
    6.3141   -3.6907   -0.0839 H   0  0  0  0  0  0  0  0  0  0  0  0
    6.3918   -3.1955    2.4383 H   0  0  0  0  0  0  0  0  0  0  0  0
    4.3843   -5.0178    2.8191 H   0  0  0  0  0  0  0  0  0  0  0  0
    4.4383   -3.5910    3.7989 H   0  0  0  0  0  0  0  0  0  0  0  0
    2.6791   -1.7181    1.1097 H   0  0  0  0  0  0  0  0  0  0  0  0
    4.2430   -0.0987    2.5990 H   0  0  0  0  0  0  0  0  0  0  0  0
    5.7007   -0.8558    3.2464 H   0  0  0  0  0  0  0  0  0  0  0  0
    4.0983   -1.4916    3.6250 H   0  0  0  0  0  0  0  0  0  0  0  0
    5.5845   -0.0464    0.8516 H   0  0  0  0  0  0  0  0  0  0  0  0
    6.9040   -2.3743    0.1848 H   0  0  0  0  0  0  0  0  0  0  0  0
    3.7848   -0.3891   -0.5068 H   0  0  0  0  0  0  0  0  0  0  0  0
    5.2183   -0.3675   -1.5463 H   0  0  0  0  0  0  0  0  0  0  0  0
    5.1807   -2.7922   -1.7306 H   0  0  0  0  0  0  0  0  0  0  0  0
    2.7402   -1.1629   -2.4274 H   0  0  0  0  0  0  0  0  0  0  0  0
    4.6830   -2.9041   -4.0508 H   0  0  0  0  0  0  0  0  0  0  0  0
    4.7740   -1.1169   -3.9267 H   0  0  0  0  0  0  0  0  0  0  0  0
    3.3831   -1.9164   -4.7226 H   0  0  0  0  0  0  0  0  0  0  0  0
    1.4916   -2.9747   -3.2423 H   0  0  0  0  0  0  0  0  0  0  0  0
    2.8882   -4.0416   -3.1765 H   0  0  0  0  0  0  0  0  0  0  0  0
    4.6579   -4.8208   -1.1252 H   0  0  0  0  0  0  0  0  0  0  0  0
  1  2  2  0
  1 24  1  0
  1 25  1  0
  2 23  1  0
  2  3  1  0
  3  4  1  0
  3 26  1  0
  3 27  1  0
  4  5  1  0
  4 28  1  0
  4 29  1  0
  5  6  2  0
  5  7  1  0
  7 23  1  0
  7  8  1  0
  7 30  1  6
  8 12  1  0
  8  9  1  0
  8 31  1  1
  9 10  1  0
  9 32  1  0
  9 33  1  0
 10 11  1  0
 11 22  1  0
 11 12  1  0
 11 34  1  6
 12 13  1  1
 12 14  1  0
 13 35  1  0
 13 36  1  0
 13 37  1  0
 14 15  1  0
 14 16  1  0
 14 38  1  1
 15 39  1  0
 16 17  1  0
 16 40  1  0
 16 41  1  0
 17 22  1  0
 17 18  1  0
 17 42  1  6
 18 19  1  0
 18 20  1  0
 18 43  1  1
 19 44  1  0
 19 45  1  0
 19 46  1  0
 20 21  1  0
 20 47  1  0
 20 48  1  0
 22 21  1  6
 22 23  1  0
 23 49  1  6
M  END
>  <i_m_ct_stereo_status>  (297) 
1

>  <s_m_source_file>  (297) 
/var/tmp/pbs.5076255.sched01/tmpavn81tjv/78c0r2i372.sdf

>  <i_m_source_file_index>  (297) 
39

>  <i_lp_mmshare_version>  (297) 
48012

>  <i_f3d_flags>  (297) 
0

>  <s_epik_input>  (297) 
Tz1DMVtDSDJdW0NIMl1DKD1bQ0gyXSlbQ0BASF0yW0NASF0xW0NASF0oW0NIMl1PMylbQ0BAXShbQ0BIXTNbQ0BdMjQ1KShbQ0gzXSlbQ0BASF0oW09IXSlbQ0gyXVtDQEBIXTRbQ0BASF0oW0NIM10pW0NIMl1TNQ==

>  <s_epik_cmdline>  (297) 
J2VwaWtfcHl0aG9uJywgJy1waHQnLCAnMi4wJywgJy1waCcsICc3LjAnLCAnLXRuJywgJzgnLCAnLW1hJywgJzIwMCcsICctaW1hZScsICc8aW5maWxlLm1hZT4nLCAnLW9tYWUnLCAnPG91dGZpbGUubWFlPic=

>  <r_lp_tautomer_probability>  (297) 
1

>  <r_epik_Ionization_Penalty>  (297) 
1.28026e-07

>  <r_epik_Ionization_Penalty_Charging>  (297) 
0

>  <r_epik_Ionization_Penalty_Neutral>  (297) 
1.28026e-07

>  <r_epik_State_Penalty>  (297) 
-0

>  <r_epik_Charging_Adjusted_Penalty>  (297) 
0

>  <i_epik_Tot_Q>  (297) 
0

>  <i_epik_Tot_abs_Q>  (297) 
0

>  <s_lp_Force_Field>  (297) 
OPLS3e

>  <r_lp_Energy>  (297) 
47.9849

>  <b_lp_Chiralities_Consistent>  (297) 
1

>  <s_lp_Variant>  (297) 
88:0-1

>  <s_i_glide_gridfile>  (297) 
pfpi4k_grid

>  <i_i_glide_lignum>  (297) 
39

>  <i_i_glide_rotatable_bonds>  (297) 
1

>  <r_i_docking_score>  (297) 
-3.31524

>  <r_i_glide_ligand_efficiency>  (297) 
-0.144141

>  <r_i_glide_ligand_efficiency_sa>  (297) 
-0.409917

>  <r_i_glide_ligand_efficiency_ln>  (297) 
-0.801655

>  <r_i_glide_gscore>  (297) 
-3.31524

>  <r_i_glide_lipo>  (297) 
-0.782194

>  <r_i_glide_hbond>  (297) 
-0.0581712

>  <r_i_glide_metal>  (297) 
-0

>  <r_i_glide_rewards>  (297) 
-1.26224

>  <r_i_glide_evdw>  (297) 
-21.2318

>  <r_i_glide_ecoul>  (297) 
-1.00697

>  <r_i_glide_erotb>  (297) 
0

>  <r_i_glide_esite>  (297) 
0

>  <r_i_glide_emodel>  (297) 
-26.4125

>  <r_i_glide_energy>  (297) 
-22.2388

>  <r_i_glide_einternal>  (297) 
0.463302

>  <r_i_glide_intrahb_reward>  (297) 
-0

>  <i_i_glide_confnum>  (297) 
1

>  <i_i_glide_posenum>  (297) 
2

>  <r_i_glide_eff_state_penalty>  (297) 
0

>  <ligand_id>  (297) 
88

>  <original_smiles>  (297) 
C=C1CCC(=O)C2C3COC4C3(C)C(O)CC3C(C)CSC34C12

>  <smiles>  (297) 
[H]OC1([H])C([H])([H])C2([H])C([H])(C([H])([H])[H])C([H])([H])SC23C2([H])OC([H])([H])C([H])(C4([H])C(=O)C([H])([H])C([H])([H])C(=C([H])[H])C43[H])C12C([H])([H])[H]

$$$$
88:0:1
     RDKit          3D

 49 53  0  0  1  0  0  0  0  0999 V2000
    5.0309   -0.2121    3.1879 C   0  0  0  0  0  0  0  0  0  0  0  0
    3.7830   -0.5746    2.8375 C   0  0  0  0  0  0  0  0  0  0  0  0
    2.5938    0.2265    3.3232 C   0  0  0  0  0  0  0  0  0  0  0  0
    1.7700   -0.6057    4.3147 C   0  0  0  0  0  0  0  0  0  0  0  0
    1.4100   -1.9969    3.7787 C   0  0  0  0  0  0  0  0  0  0  0  0
    0.3582   -2.5346    4.1190 O   0  0  0  0  0  0  0  0  0  0  0  0
    2.4032   -2.7375    2.8610 C   0  0  2  0  0  0  0  0  0  0  0  0
    3.1748   -3.8782    3.6065 C   0  0  2  0  0  0  0  0  0  0  0  0
    4.3213   -3.2799    4.4333 C   0  0  0  0  0  0  0  0  0  0  0  0
    5.3912   -3.1578    3.4878 O   0  0  0  0  0  0  0  0  0  0  0  0
    5.0220   -3.7585    2.2381 C   0  0  1  0  0  0  0  0  0  0  0  0
    3.9765   -4.8127    2.6669 C   0  0  1  0  0  0  0  0  0  0  0  0
    4.6526   -5.9878    3.4347 C   0  0  0  0  0  0  0  0  0  0  0  0
    3.2283   -5.4623    1.4542 C   0  0  1  0  0  0  0  0  0  0  0  0
    1.8190   -5.4751    1.5803 O   0  0  0  0  0  0  0  0  0  0  0  0
    3.6837   -4.9005    0.1029 C   0  0  0  0  0  0  0  0  0  0  0  0
    3.6516   -3.3694    0.0540 C   0  0  2  0  0  0  0  0  0  0  0  0
    4.1460   -2.8219   -1.3093 C   0  0  1  0  0  0  0  0  0  0  0  0
    3.0482   -2.7385   -2.3868 C   0  0  0  0  0  0  0  0  0  0  0  0
    4.7883   -1.4683   -1.0411 C   0  0  0  0  0  0  0  0  0  0  0  0
    5.7264   -1.6990    0.4678 S   0  0  0  0  0  0  0  0  0  0  0  0
    4.4069   -2.6870    1.2605 C   0  0  2  0  0  0  0  0  0  0  0  0
    3.3442   -1.8070    2.0245 C   0  0  2  0  0  0  0  0  0  0  0  0
    5.9145   -0.7688    2.9131 H   0  0  0  0  0  0  0  0  0  0  0  0
    5.1868    0.6815    3.7775 H   0  0  0  0  0  0  0  0  0  0  0  0
    2.9177    1.1569    3.7926 H   0  0  0  0  0  0  0  0  0  0  0  0
    1.9756    0.5081    2.4684 H   0  0  0  0  0  0  0  0  0  0  0  0
    2.3303   -0.7330    5.2419 H   0  0  0  0  0  0  0  0  0  0  0  0
    0.8552   -0.0744    4.5785 H   0  0  0  0  0  0  0  0  0  0  0  0
    1.7422   -3.2046    2.1395 H   0  0  0  0  0  0  0  0  0  0  0  0
    2.4863   -4.4469    4.2376 H   0  0  0  0  0  0  0  0  0  0  0  0
    4.0748   -2.3303    4.9043 H   0  0  0  0  0  0  0  0  0  0  0  0
    4.6173   -3.9455    5.2452 H   0  0  0  0  0  0  0  0  0  0  0  0
    5.8958   -4.2330    1.7887 H   0  0  0  0  0  0  0  0  0  0  0  0
    5.2209   -6.6282    2.7601 H   0  0  0  0  0  0  0  0  0  0  0  0
    3.9100   -6.6145    3.9305 H   0  0  0  0  0  0  0  0  0  0  0  0
    5.3678   -5.6700    4.1908 H   0  0  0  0  0  0  0  0  0  0  0  0
    3.4678   -6.5257    1.4108 H   0  0  0  0  0  0  0  0  0  0  0  0
    1.6074   -5.9658    2.3592 H   0  0  0  0  0  0  0  0  0  0  0  0
    4.6969   -5.2508   -0.1007 H   0  0  0  0  0  0  0  0  0  0  0  0
    3.0571   -5.3032   -0.6870 H   0  0  0  0  0  0  0  0  0  0  0  0
    2.5915   -3.1205    0.1047 H   0  0  0  0  0  0  0  0  0  0  0  0
    4.9318   -3.4823   -1.6805 H   0  0  0  0  0  0  0  0  0  0  0  0
    2.2292   -2.0895   -2.0794 H   0  0  0  0  0  0  0  0  0  0  0  0
    2.6207   -3.7185   -2.5973 H   0  0  0  0  0  0  0  0  0  0  0  0
    3.4393   -2.3422   -3.3223 H   0  0  0  0  0  0  0  0  0  0  0  0
    5.4295   -1.1424   -1.8603 H   0  0  0  0  0  0  0  0  0  0  0  0
    4.0303   -0.7012   -0.8657 H   0  0  0  0  0  0  0  0  0  0  0  0
    2.7274   -1.3394    1.2544 H   0  0  0  0  0  0  0  0  0  0  0  0
  1  2  2  0
  1 24  1  0
  1 25  1  0
  2 23  1  0
  2  3  1  0
  3  4  1  0
  3 26  1  0
  3 27  1  0
  4  5  1  0
  4 28  1  0
  4 29  1  0
  5  6  2  0
  5  7  1  0
  7 23  1  0
  7  8  1  0
  7 30  1  6
  8 12  1  0
  8  9  1  0
  8 31  1  1
  9 10  1  0
  9 32  1  0
  9 33  1  0
 10 11  1  0
 11 22  1  0
 11 12  1  0
 11 34  1  6
 12 13  1  1
 12 14  1  0
 13 35  1  0
 13 36  1  0
 13 37  1  0
 14 15  1  0
 14 16  1  0
 14 38  1  6
 15 39  1  0
 16 17  1  0
 16 40  1  0
 16 41  1  0
 17 22  1  0
 17 18  1  0
 17 42  1  1
 18 19  1  0
 18 20  1  0
 18 43  1  6
 19 44  1  0
 19 45  1  0
 19 46  1  0
 20 21  1  0
 20 47  1  0
 20 48  1  0
 22 21  1  6
 22 23  1  0
 23 49  1  6
M  END
>  <i_m_ct_stereo_status>  (298) 
1

>  <s_m_source_file>  (298) 
/var/tmp/pbs.5076255.sched01/tmpavn81tjv/78c0r2i372.sdf

>  <i_m_source_file_index>  (298) 
39

>  <i_lp_mmshare_version>  (298) 
48012

>  <i_f3d_flags>  (298) 
0

>  <s_epik_input>  (298) 
Tz1DMVtDSDJdW0NIMl1DKD1bQ0gyXSlbQ0BASF0yW0NASF0xW0NASF0oW0NIMl1PMylbQ0BAXShbQ0BIXTNbQ0BdMjQ1KShbQ0gzXSlbQ0BASF0oW09IXSlbQ0gyXVtDQEBIXTRbQ0BASF0oW0NIM10pW0NIMl1TNQ==

>  <s_epik_cmdline>  (298) 
J2VwaWtfcHl0aG9uJywgJy1waHQnLCAnMi4wJywgJy1waCcsICc3LjAnLCAnLXRuJywgJzgnLCAnLW1hJywgJzIwMCcsICctaW1hZScsICc8aW5maWxlLm1hZT4nLCAnLW9tYWUnLCAnPG91dGZpbGUubWFlPic=

>  <r_lp_tautomer_probability>  (298) 
1

>  <r_epik_Ionization_Penalty>  (298) 
1.28026e-07

>  <r_epik_Ionization_Penalty_Charging>  (298) 
0

>  <r_epik_Ionization_Penalty_Neutral>  (298) 
1.28026e-07

>  <r_epik_State_Penalty>  (298) 
-0

>  <r_epik_Charging_Adjusted_Penalty>  (298) 
0

>  <i_epik_Tot_Q>  (298) 
0

>  <i_epik_Tot_abs_Q>  (298) 
0

>  <s_lp_Force_Field>  (298) 
OPLS3e

>  <r_lp_Energy>  (298) 
47.9849

>  <b_lp_Chiralities_Consistent>  (298) 
1

>  <s_lp_Variant>  (298) 
88:0-1

>  <s_i_glide_gridfile>  (298) 
pfpi4k_grid

>  <i_i_glide_lignum>  (298) 
39

>  <i_i_glide_rotatable_bonds>  (298) 
1

>  <r_i_docking_score>  (298) 
-2.82319

>  <r_i_glide_ligand_efficiency>  (298) 
-0.122747

>  <r_i_glide_ligand_efficiency_sa>  (298) 
-0.349077

>  <r_i_glide_ligand_efficiency_ln>  (298) 
-0.682673

>  <r_i_glide_gscore>  (298) 
-2.82319

>  <r_i_glide_lipo>  (298) 
-0.30296

>  <r_i_glide_hbond>  (298) 
-0.0479241

>  <r_i_glide_metal>  (298) 
-0

>  <r_i_glide_rewards>  (298) 
-1.15016

>  <r_i_glide_evdw>  (298) 
-22.4353

>  <r_i_glide_ecoul>  (298) 
-1.33587

>  <r_i_glide_erotb>  (298) 
0

>  <r_i_glide_esite>  (298) 
0

>  <r_i_glide_emodel>  (298) 
-28.4163

>  <r_i_glide_energy>  (298) 
-23.7712

>  <r_i_glide_einternal>  (298) 
0.342039

>  <r_i_glide_intrahb_reward>  (298) 
-0

>  <i_i_glide_confnum>  (298) 
1

>  <i_i_glide_posenum>  (298) 
38

>  <r_i_glide_eff_state_penalty>  (298) 
0

>  <ligand_id>  (298) 
88

>  <original_smiles>  (298) 
C=C1CCC(=O)C2C3COC4C3(C)C(O)CC3C(C)CSC34C12

>  <smiles>  (298) 
[H]OC1([H])C([H])([H])C2([H])C([H])(C([H])([H])[H])C([H])([H])SC23C2([H])OC([H])([H])C([H])(C4([H])C(=O)C([H])([H])C([H])([H])C(=C([H])[H])C43[H])C12C([H])([H])[H]

$$$$
88:0:2
     RDKit          3D

 49 53  0  0  1  0  0  0  0  0999 V2000
    4.8857    0.0271    3.3395 C   0  0  0  0  0  0  0  0  0  0  0  0
    3.6872   -0.4025    2.8989 C   0  0  0  0  0  0  0  0  0  0  0  0
    2.4291    0.3314    3.3025 C   0  0  0  0  0  0  0  0  0  0  0  0
    1.5871   -0.5485    4.2342 C   0  0  0  0  0  0  0  0  0  0  0  0
    1.3418   -1.9572    3.6837 C   0  0  0  0  0  0  0  0  0  0  0  0
    0.3151   -2.5588    3.9897 O   0  0  0  0  0  0  0  0  0  0  0  0
    2.4251   -2.6382    2.8198 C   0  0  2  0  0  0  0  0  0  0  0  0
    3.2051   -3.7410    3.6102 C   0  0  2  0  0  0  0  0  0  0  0  0
    4.2578   -3.0877    4.5168 C   0  0  0  0  0  0  0  0  0  0  0  0
    5.3815   -2.9013    3.6480 O   0  0  0  0  0  0  0  0  0  0  0  0
    5.1334   -3.5143    2.3750 C   0  0  1  0  0  0  0  0  0  0  0  0
    4.1181   -4.6240    2.7251 C   0  0  1  0  0  0  0  0  0  0  0  0
    4.8029   -5.7649    3.5353 C   0  0  0  0  0  0  0  0  0  0  0  0
    3.4940   -5.3058    1.4620 C   0  0  1  0  0  0  0  0  0  0  0  0
    2.0824   -5.4096    1.4787 O   0  0  0  0  0  0  0  0  0  0  0  0
    4.0106   -4.7154    0.1445 C   0  0  0  0  0  0  0  0  0  0  0  0
    3.8987   -3.1861    0.1031 C   0  0  2  0  0  0  0  0  0  0  0  0
    4.4605   -2.6049   -1.2171 C   0  0  1  0  0  0  0  0  0  0  0  0
    3.4378   -2.5652   -2.3670 C   0  0  0  0  0  0  0  0  0  0  0  0
    5.0081   -1.2223   -0.8988 C   0  0  0  0  0  0  0  0  0  0  0  0
    5.8480   -1.4133    0.6701 S   0  0  0  0  0  0  0  0  0  0  0  0
    4.5299   -2.4723    1.3621 C   0  0  2  0  0  0  0  0  0  0  0  0
    3.3722   -1.6528    2.0541 C   0  0  2  0  0  0  0  0  0  0  0  0
    5.8148   -0.4821    3.1276 H   0  0  0  0  0  0  0  0  0  0  0  0
    4.9513    0.9250    3.9408 H   0  0  0  0  0  0  0  0  0  0  0  0
    2.6720    1.2733    3.7972 H   0  0  0  0  0  0  0  0  0  0  0  0
    1.8572    0.5846    2.4082 H   0  0  0  0  0  0  0  0  0  0  0  0
    2.0861   -0.6497    5.1994 H   0  0  0  0  0  0  0  0  0  0  0  0
    0.6272   -0.0703    4.4316 H   0  0  0  0  0  0  0  0  0  0  0  0
    1.8381   -3.1365    2.0554 H   0  0  0  0  0  0  0  0  0  0  0  0
    2.5046   -4.3539    4.1853 H   0  0  0  0  0  0  0  0  0  0  0  0
    3.9294   -2.1564    4.9724 H   0  0  0  0  0  0  0  0  0  0  0  0
    4.5329   -3.7426    5.3440 H   0  0  0  0  0  0  0  0  0  0  0  0
    6.0607   -3.9386    1.9862 H   0  0  0  0  0  0  0  0  0  0  0  0
    5.4508   -6.3693    2.9005 H   0  0  0  0  0  0  0  0  0  0  0  0
    4.0599   -6.4332    3.9734 H   0  0  0  0  0  0  0  0  0  0  0  0
    5.4441   -5.4145    4.3408 H   0  0  0  0  0  0  0  0  0  0  0  0
    3.7975   -6.3523    1.4437 H   0  0  0  0  0  0  0  0  0  0  0  0
    1.8414   -6.1286    0.9166 H   0  0  0  0  0  0  0  0  0  0  0  0
    5.0554   -5.0031    0.0182 H   0  0  0  0  0  0  0  0  0  0  0  0
    3.4776   -5.1483   -0.6993 H   0  0  0  0  0  0  0  0  0  0  0  0
    2.8260   -2.9915    0.0796 H   0  0  0  0  0  0  0  0  0  0  0  0
    5.3049   -3.2196   -1.5337 H   0  0  0  0  0  0  0  0  0  0  0  0
    2.5746   -1.9516   -2.1076 H   0  0  0  0  0  0  0  0  0  0  0  0
    3.0729   -3.5627   -2.6113 H   0  0  0  0  0  0  0  0  0  0  0  0
    3.8730   -2.1430   -3.2712 H   0  0  0  0  0  0  0  0  0  0  0  0
    5.6844   -0.8560   -1.6703 H   0  0  0  0  0  0  0  0  0  0  0  0
    4.2007   -0.4975   -0.7714 H   0  0  0  0  0  0  0  0  0  0  0  0
    2.7874   -1.2134    1.2436 H   0  0  0  0  0  0  0  0  0  0  0  0
  1  2  2  0
  1 24  1  0
  1 25  1  0
  2 23  1  0
  2  3  1  0
  3  4  1  0
  3 26  1  0
  3 27  1  0
  4  5  1  0
  4 28  1  0
  4 29  1  0
  5  6  2  0
  5  7  1  0
  7 23  1  0
  7  8  1  0
  7 30  1  6
  8 12  1  0
  8  9  1  0
  8 31  1  1
  9 10  1  0
  9 32  1  0
  9 33  1  0
 10 11  1  0
 11 22  1  0
 11 12  1  0
 11 34  1  6
 12 13  1  1
 12 14  1  0
 13 35  1  0
 13 36  1  0
 13 37  1  0
 14 15  1  0
 14 16  1  0
 14 38  1  6
 15 39  1  0
 16 17  1  0
 16 40  1  0
 16 41  1  0
 17 22  1  0
 17 18  1  0
 17 42  1  6
 18 19  1  0
 18 20  1  0
 18 43  1  6
 19 44  1  0
 19 45  1  0
 19 46  1  0
 20 21  1  0
 20 47  1  0
 20 48  1  0
 22 21  1  6
 22 23  1  0
 23 49  1  6
M  END
>  <i_m_ct_stereo_status>  (299) 
1

>  <s_m_source_file>  (299) 
/var/tmp/pbs.5076255.sched01/tmpavn81tjv/78c0r2i372.sdf

>  <i_m_source_file_index>  (299) 
39

>  <i_lp_mmshare_version>  (299) 
48012

>  <i_f3d_flags>  (299) 
0

>  <s_epik_input>  (299) 
Tz1DMVtDSDJdW0NIMl1DKD1bQ0gyXSlbQ0BASF0yW0NASF0xW0NASF0oW0NIMl1PMylbQ0BAXShbQ0BIXTNbQ0BdMjQ1KShbQ0gzXSlbQ0BASF0oW09IXSlbQ0gyXVtDQEBIXTRbQ0BASF0oW0NIM10pW0NIMl1TNQ==

>  <s_epik_cmdline>  (299) 
J2VwaWtfcHl0aG9uJywgJy1waHQnLCAnMi4wJywgJy1waCcsICc3LjAnLCAnLXRuJywgJzgnLCAnLW1hJywgJzIwMCcsICctaW1hZScsICc8aW5maWxlLm1hZT4nLCAnLW9tYWUnLCAnPG91dGZpbGUubWFlPic=

>  <r_lp_tautomer_probability>  (299) 
1

>  <r_epik_Ionization_Penalty>  (299) 
1.28026e-07

>  <r_epik_Ionization_Penalty_Charging>  (299) 
0

>  <r_epik_Ionization_Penalty_Neutral>  (299) 
1.28026e-07

>  <r_epik_State_Penalty>  (299) 
-0

>  <r_epik_Charging_Adjusted_Penalty>  (299) 
0

>  <i_epik_Tot_Q>  (299) 
0

>  <i_epik_Tot_abs_Q>  (299) 
0

>  <s_lp_Force_Field>  (299) 
OPLS3e

>  <r_lp_Energy>  (299) 
47.9849

>  <b_lp_Chiralities_Consistent>  (299) 
1

>  <s_lp_Variant>  (299) 
88:0-1

>  <s_i_glide_gridfile>  (299) 
pfpi4k_grid

>  <i_i_glide_lignum>  (299) 
39

>  <i_i_glide_rotatable_bonds>  (299) 
1

>  <r_i_docking_score>  (299) 
-2.55986

>  <r_i_glide_ligand_efficiency>  (299) 
-0.111298

>  <r_i_glide_ligand_efficiency_sa>  (299) 
-0.316517

>  <r_i_glide_ligand_efficiency_ln>  (299) 
-0.618997

>  <r_i_glide_gscore>  (299) 
-2.55986

>  <r_i_glide_lipo>  (299) 
-0.292445

>  <r_i_glide_hbond>  (299) 
-0.00771739

>  <r_i_glide_metal>  (299) 
-0

>  <r_i_glide_rewards>  (299) 
-1.15298

>  <r_i_glide_evdw>  (299) 
-22.855

>  <r_i_glide_ecoul>  (299) 
0.240207

>  <r_i_glide_erotb>  (299) 
0

>  <r_i_glide_esite>  (299) 
0

>  <r_i_glide_emodel>  (299) 
-26.5512

>  <r_i_glide_energy>  (299) 
-22.6148

>  <r_i_glide_einternal>  (299) 
0.586577

>  <r_i_glide_intrahb_reward>  (299) 
-0

>  <i_i_glide_confnum>  (299) 
1

>  <i_i_glide_posenum>  (299) 
25

>  <r_i_glide_eff_state_penalty>  (299) 
0

>  <ligand_id>  (299) 
88

>  <original_smiles>  (299) 
C=C1CCC(=O)C2C3COC4C3(C)C(O)CC3C(C)CSC34C12

>  <smiles>  (299) 
[H]OC1([H])C([H])([H])C2([H])C([H])(C([H])([H])[H])C([H])([H])SC23C2([H])OC([H])([H])C([H])(C4([H])C(=O)C([H])([H])C([H])([H])C(=C([H])[H])C43[H])C12C([H])([H])[H]

$$$$
89:0:0
     RDKit          3D

 20 22  0  0  1  0  0  0  0  0999 V2000
    4.5404   -6.3871    0.8245 C   0  0  0  0  0  0  0  0  0  0  0  0
    3.5013   -7.1016    1.4334 C   0  0  0  0  0  0  0  0  0  0  0  0
    2.1882   -6.5873    1.2979 C   0  0  0  0  0  0  0  0  0  0  0  0
    1.0950   -7.2517    1.8947 N   0  0  0  0  0  0  0  0  0  0  0  0
   -0.2018   -6.7459    1.8455 N   0  0  0  0  0  0  0  0  0  0  0  0
   -0.9564   -7.6603    2.5025 C   0  0  0  0  0  0  0  0  0  0  0  0
   -0.1464   -8.7063    2.9734 C   0  0  0  0  0  0  0  0  0  0  0  0
   -0.1993   -9.8653    3.6871 N   0  0  0  0  0  0  0  0  0  0  0  0
    1.0997  -10.2466    3.6733 C   0  0  0  0  0  0  0  0  0  0  0  0
    1.9404   -9.4096    3.0261 N   0  0  0  0  0  0  0  0  0  0  0  0
    1.0705   -8.4142    2.5836 C   0  0  0  0  0  0  0  0  0  0  0  0
    1.9732   -5.4567    0.5907 N   0  0  0  0  0  0  0  0  0  0  0  0
    3.0441   -4.8439    0.0791 C   0  0  0  0  0  0  0  0  0  0  0  0
    4.3142   -5.2468    0.1564 N   0  0  0  0  0  0  0  0  0  0  0  0
    5.5642   -6.7392    0.8828 H   0  0  0  0  0  0  0  0  0  0  0  0
    3.7202   -8.0100    1.9732 H   0  0  0  0  0  0  0  0  0  0  0  0
   -2.0188   -7.6184    2.6644 H   0  0  0  0  0  0  0  0  0  0  0  0
    1.4601  -11.1489    4.1594 H   0  0  0  0  0  0  0  0  0  0  0  0
    2.8468   -3.9375   -0.4684 H   0  0  0  0  0  0  0  0  0  0  0  0
   -1.0061  -10.3001    4.1507 H   0  0  0  0  0  0  0  0  0  0  0  0
  1 14  2  0
  1  2  1  0
  1 15  1  0
  2  3  2  0
  2 16  1  0
  3 12  1  0
  3  4  1  0
  4  5  1  0
  4 11  1  0
  5  6  2  0
  6  7  1  0
  6 17  1  0
  7  8  1  0
  7 11  2  0
  8  9  1  0
  8 20  1  0
  9 10  2  0
  9 18  1  0
 10 11  1  0
 12 13  2  0
 13 14  1  0
 13 19  1  0
M  END
>  <i_m_ct_stereo_status>  (300) 
1

>  <s_m_source_file>  (300) 
/var/tmp/pbs.5076255.sched01/tmpmzi298dc/117y2go66iu.sdf

>  <i_m_source_file_index>  (300) 
1

>  <i_lp_mmshare_version>  (300) 
48012

>  <i_f3d_flags>  (300) 
0

>  <s_epik_input>  (300) 
bjFbY0hdbltjSF1bY0hdYzEtbihuW2NIXTIpYyhjMjMpW25IXVtjSF1uMw==

>  <s_epik_cmdline>  (300) 
J2VwaWtfcHl0aG9uJywgJy1waHQnLCAnMi4wJywgJy1waCcsICc3LjAnLCAnLXRuJywgJzgnLCAnLW1hJywgJzIwMCcsICctaW1hZScsICc8aW5maWxlLm1hZT4nLCAnLW9tYWUnLCAnPG91dGZpbGUubWFlPic=

>  <r_lp_tautomer_probability>  (300) 
0.980389

>  <r_epik_Ionization_Penalty>  (300) 
0.0676406

>  <r_epik_Ionization_Penalty_Charging>  (300) 
0.0674839

>  <r_epik_Ionization_Penalty_Neutral>  (300) 
0.000156682

>  <r_epik_State_Penalty>  (300) 
0.291676

>  <r_epik_Charging_Adjusted_Penalty>  (300) 
0.35916

>  <i_epik_Tot_Q>  (300) 
0

>  <i_epik_Tot_abs_Q>  (300) 
0

>  <s_lp_Force_Field>  (300) 
OPLS3e

>  <r_lp_Energy>  (300) 
19.5901

>  <b_lp_Chiralities_Consistent>  (300) 
1

>  <s_lp_Variant>  (300) 
89:0-1

>  <s_i_glide_gridfile>  (300) 
pfpi4k_grid

>  <i_i_glide_lignum>  (300) 
1

>  <i_i_glide_rotatable_bonds>  (300) 
1

>  <r_i_docking_score>  (300) 
-4.49013

>  <r_i_glide_ligand_efficiency>  (300) 
-0.320724

>  <r_i_glide_ligand_efficiency_sa>  (300) 
-0.77299

>  <r_i_glide_ligand_efficiency_ln>  (300) 
-1.23387

>  <r_i_glide_gscore>  (300) 
-4.49013

>  <r_i_glide_lipo>  (300) 
-0.187939

>  <r_i_glide_hbond>  (300) 
-0.385665

>  <r_i_glide_metal>  (300) 
-0

>  <r_i_glide_rewards>  (300) 
-2.21007

>  <r_i_glide_evdw>  (300) 
-18.1719

>  <r_i_glide_ecoul>  (300) 
-7.16215

>  <r_i_glide_erotb>  (300) 
0.459853

>  <r_i_glide_esite>  (300) 
-0.183389

>  <r_i_glide_emodel>  (300) 
-34.1308

>  <r_i_glide_energy>  (300) 
-25.334

>  <r_i_glide_einternal>  (300) 
0.486766

>  <r_i_glide_intrahb_reward>  (300) 
-0

>  <i_i_glide_confnum>  (300) 
3

>  <i_i_glide_posenum>  (300) 
18

>  <r_i_glide_eff_state_penalty>  (300) 
0

>  <ligand_id>  (300) 
89

>  <original_smiles>  (300) 
c1cc(-n2ncc3nc[nH]c32)ncn1

>  <smiles>  (300) 
[H]c1nc([H])c([H])c(-n2nc([H])c3c2nc([H])n3[H])n1

$$$$
89:0:1
     RDKit          3D

 20 22  0  0  1  0  0  0  0  0999 V2000
   -1.8848    4.8754    9.0217 C   0  0  0  0  0  0  0  0  0  0  0  0
   -1.6514    4.2159    7.8027 C   0  0  0  0  0  0  0  0  0  0  0  0
   -2.0313    2.8542    7.7235 C   0  0  0  0  0  0  0  0  0  0  0  0
   -1.8457    2.1434    6.5144 N   0  0  0  0  0  0  0  0  0  0  0  0
   -1.7963    0.7547    6.4748 N   0  0  0  0  0  0  0  0  0  0  0  0
   -1.5866    0.4523    5.1689 C   0  0  0  0  0  0  0  0  0  0  0  0
   -1.5242    1.6247    4.3981 C   0  0  0  0  0  0  0  0  0  0  0  0
   -1.3772    2.0478    3.1075 N   0  0  0  0  0  0  0  0  0  0  0  0
   -1.4712    3.3972    3.2794 C   0  0  0  0  0  0  0  0  0  0  0  0
   -1.6786    3.8172    4.5574 N   0  0  0  0  0  0  0  0  0  0  0  0
   -1.6966    2.6077    5.2545 C   0  0  0  0  0  0  0  0  0  0  0  0
   -2.5804    2.2364    8.7960 N   0  0  0  0  0  0  0  0  0  0  0  0
   -2.7494    2.9658    9.9024 C   0  0  0  0  0  0  0  0  0  0  0  0
   -2.4414    4.2485   10.0654 N   0  0  0  0  0  0  0  0  0  0  0  0
   -1.6168    5.9159    9.1547 H   0  0  0  0  0  0  0  0  0  0  0  0
   -1.1932    4.7313    6.9713 H   0  0  0  0  0  0  0  0  0  0  0  0
   -1.4932   -0.5278    4.7442 H   0  0  0  0  0  0  0  0  0  0  0  0
   -1.3908    4.1074    2.4743 H   0  0  0  0  0  0  0  0  0  0  0  0
   -3.2065    2.4464   10.7314 H   0  0  0  0  0  0  0  0  0  0  0  0
   -1.2391    1.5124    2.2605 H   0  0  0  0  0  0  0  0  0  0  0  0
  1 14  2  0
  1  2  1  0
  1 15  1  0
  2  3  2  0
  2 16  1  0
  3 12  1  0
  3  4  1  0
  4  5  1  0
  4 11  1  0
  5  6  2  0
  6  7  1  0
  6 17  1  0
  7  8  1  0
  7 11  2  0
  8  9  1  0
  8 20  1  0
  9 10  2  0
  9 18  1  0
 10 11  1  0
 12 13  2  0
 13 14  1  0
 13 19  1  0
M  END
>  <i_m_ct_stereo_status>  (301) 
1

>  <s_m_source_file>  (301) 
/var/tmp/pbs.5076255.sched01/tmpmzi298dc/117y2go66iu.sdf

>  <i_m_source_file_index>  (301) 
1

>  <i_lp_mmshare_version>  (301) 
48012

>  <i_f3d_flags>  (301) 
0

>  <s_epik_input>  (301) 
bjFbY0hdbltjSF1bY0hdYzEtbihuW2NIXTIpYyhjMjMpW25IXVtjSF1uMw==

>  <s_epik_cmdline>  (301) 
J2VwaWtfcHl0aG9uJywgJy1waHQnLCAnMi4wJywgJy1waCcsICc3LjAnLCAnLXRuJywgJzgnLCAnLW1hJywgJzIwMCcsICctaW1hZScsICc8aW5maWxlLm1hZT4nLCAnLW9tYWUnLCAnPG91dGZpbGUubWFlPic=

>  <r_lp_tautomer_probability>  (301) 
0.980389

>  <r_epik_Ionization_Penalty>  (301) 
0.0676406

>  <r_epik_Ionization_Penalty_Charging>  (301) 
0.0674839

>  <r_epik_Ionization_Penalty_Neutral>  (301) 
0.000156682

>  <r_epik_State_Penalty>  (301) 
0.291676

>  <r_epik_Charging_Adjusted_Penalty>  (301) 
0.35916

>  <i_epik_Tot_Q>  (301) 
0

>  <i_epik_Tot_abs_Q>  (301) 
0

>  <s_lp_Force_Field>  (301) 
OPLS3e

>  <r_lp_Energy>  (301) 
19.5901

>  <b_lp_Chiralities_Consistent>  (301) 
1

>  <s_lp_Variant>  (301) 
89:0-1

>  <s_i_glide_gridfile>  (301) 
pfpi4k_grid

>  <i_i_glide_lignum>  (301) 
1

>  <i_i_glide_rotatable_bonds>  (301) 
1

>  <r_i_docking_score>  (301) 
-3.89994

>  <r_i_glide_ligand_efficiency>  (301) 
-0.278567

>  <r_i_glide_ligand_efficiency_sa>  (301) 
-0.671386

>  <r_i_glide_ligand_efficiency_ln>  (301) 
-1.07169

>  <r_i_glide_gscore>  (301) 
-3.89994

>  <r_i_glide_lipo>  (301) 
0

>  <r_i_glide_hbond>  (301) 
-0.141816

>  <r_i_glide_metal>  (301) 
-0

>  <r_i_glide_rewards>  (301) 
-2.21836

>  <r_i_glide_evdw>  (301) 
-17.8551

>  <r_i_glide_ecoul>  (301) 
-6.07942

>  <r_i_glide_erotb>  (301) 
0.459853

>  <r_i_glide_esite>  (301) 
-0.194949

>  <r_i_glide_emodel>  (301) 
-31.5703

>  <r_i_glide_energy>  (301) 
-23.9346

>  <r_i_glide_einternal>  (301) 
0.476558

>  <r_i_glide_intrahb_reward>  (301) 
-0

>  <i_i_glide_confnum>  (301) 
2

>  <i_i_glide_posenum>  (301) 
33

>  <r_i_glide_eff_state_penalty>  (301) 
0

>  <ligand_id>  (301) 
89

>  <original_smiles>  (301) 
c1cc(-n2ncc3nc[nH]c32)ncn1

>  <smiles>  (301) 
[H]c1nc([H])c([H])c(-n2nc([H])c3c2nc([H])n3[H])n1

$$$$
89:0:2
     RDKit          3D

 20 22  0  0  1  0  0  0  0  0999 V2000
    4.9510   -5.0016    0.0603 C   0  0  0  0  0  0  0  0  0  0  0  0
    4.1408   -5.9593    0.6846 C   0  0  0  0  0  0  0  0  0  0  0  0
    2.7508   -5.7299    0.6688 C   0  0  0  0  0  0  0  0  0  0  0  0
    1.8665   -6.6557    1.2788 N   0  0  0  0  0  0  0  0  0  0  0  0
    0.5039   -6.3947    1.4615 N   0  0  0  0  0  0  0  0  0  0  0  0
    0.0129   -7.5035    2.0589 C   0  0  0  0  0  0  0  0  0  0  0  0
    1.0346   -8.4522    2.2490 C   0  0  0  0  0  0  0  0  0  0  0  0
    1.2439   -9.7195    2.7310 N   0  0  0  0  0  0  0  0  0  0  0  0
    2.5720   -9.8628    2.4693 C   0  0  0  0  0  0  0  0  0  0  0  0
    3.1659   -8.7996    1.8733 N   0  0  0  0  0  0  0  0  0  0  0  0
    2.1173   -7.8990    1.7516 C   0  0  0  0  0  0  0  0  0  0  0  0
    2.2379   -4.6300    0.0703 N   0  0  0  0  0  0  0  0  0  0  0  0
    3.1063   -3.7893   -0.4933 C   0  0  0  0  0  0  0  0  0  0  0  0
    4.4358   -3.9012   -0.5211 N   0  0  0  0  0  0  0  0  0  0  0  0
    6.0267   -5.1125    0.0359 H   0  0  0  0  0  0  0  0  0  0  0  0
    4.5866   -6.8216    1.1462 H   0  0  0  0  0  0  0  0  0  0  0  0
   -1.0042   -7.6747    2.3510 H   0  0  0  0  0  0  0  0  0  0  0  0
    3.1423  -10.7486    2.7031 H   0  0  0  0  0  0  0  0  0  0  0  0
    2.6784   -2.9181   -0.9598 H   0  0  0  0  0  0  0  0  0  0  0  0
    0.5830  -10.3692    3.1492 H   0  0  0  0  0  0  0  0  0  0  0  0
  1 14  2  0
  1  2  1  0
  1 15  1  0
  2  3  2  0
  2 16  1  0
  3 12  1  0
  3  4  1  0
  4  5  1  0
  4 11  1  0
  5  6  2  0
  6  7  1  0
  6 17  1  0
  7  8  1  0
  7 11  2  0
  8  9  1  0
  8 20  1  0
  9 10  2  0
  9 18  1  0
 10 11  1  0
 12 13  2  0
 13 14  1  0
 13 19  1  0
M  END
>  <i_m_ct_stereo_status>  (302) 
1

>  <s_m_source_file>  (302) 
/var/tmp/pbs.5076255.sched01/tmpmzi298dc/117y2go66iu.sdf

>  <i_m_source_file_index>  (302) 
1

>  <i_lp_mmshare_version>  (302) 
48012

>  <i_f3d_flags>  (302) 
0

>  <s_epik_input>  (302) 
bjFbY0hdbltjSF1bY0hdYzEtbihuW2NIXTIpYyhjMjMpW25IXVtjSF1uMw==

>  <s_epik_cmdline>  (302) 
J2VwaWtfcHl0aG9uJywgJy1waHQnLCAnMi4wJywgJy1waCcsICc3LjAnLCAnLXRuJywgJzgnLCAnLW1hJywgJzIwMCcsICctaW1hZScsICc8aW5maWxlLm1hZT4nLCAnLW9tYWUnLCAnPG91dGZpbGUubWFlPic=

>  <r_lp_tautomer_probability>  (302) 
0.980389

>  <r_epik_Ionization_Penalty>  (302) 
0.0676406

>  <r_epik_Ionization_Penalty_Charging>  (302) 
0.0674839

>  <r_epik_Ionization_Penalty_Neutral>  (302) 
0.000156682

>  <r_epik_State_Penalty>  (302) 
0.291676

>  <r_epik_Charging_Adjusted_Penalty>  (302) 
0.35916

>  <i_epik_Tot_Q>  (302) 
0

>  <i_epik_Tot_abs_Q>  (302) 
0

>  <s_lp_Force_Field>  (302) 
OPLS3e

>  <r_lp_Energy>  (302) 
19.5901

>  <b_lp_Chiralities_Consistent>  (302) 
1

>  <s_lp_Variant>  (302) 
89:0-1

>  <s_i_glide_gridfile>  (302) 
pfpi4k_grid

>  <i_i_glide_lignum>  (302) 
1

>  <i_i_glide_rotatable_bonds>  (302) 
1

>  <r_i_docking_score>  (302) 
-3.61752

>  <r_i_glide_ligand_efficiency>  (302) 
-0.258395

>  <r_i_glide_ligand_efficiency_sa>  (302) 
-0.622768

>  <r_i_glide_ligand_efficiency_ln>  (302) 
-0.994083

>  <r_i_glide_gscore>  (302) 
-3.61752

>  <r_i_glide_lipo>  (302) 
-0.122595

>  <r_i_glide_hbond>  (302) 
-0.164981

>  <r_i_glide_metal>  (302) 
-0

>  <r_i_glide_rewards>  (302) 
-2.13973

>  <r_i_glide_evdw>  (302) 
-17.8446

>  <r_i_glide_ecoul>  (302) 
-4.40017

>  <r_i_glide_erotb>  (302) 
0.459853

>  <r_i_glide_esite>  (302) 
-0.0978192

>  <r_i_glide_emodel>  (302) 
-29.3089

>  <r_i_glide_energy>  (302) 
-22.2448

>  <r_i_glide_einternal>  (302) 
0.455901

>  <r_i_glide_intrahb_reward>  (302) 
-0

>  <i_i_glide_confnum>  (302) 
3

>  <i_i_glide_posenum>  (302) 
11

>  <r_i_glide_eff_state_penalty>  (302) 
0

>  <ligand_id>  (302) 
89

>  <original_smiles>  (302) 
c1cc(-n2ncc3nc[nH]c32)ncn1

>  <smiles>  (302) 
[H]c1nc([H])c([H])c(-n2nc([H])c3c2nc([H])n3[H])n1

$$$$
89:1:0
     RDKit          3D

 20 22  0  0  1  0  0  0  0  0999 V2000
    3.4831   -0.3696    1.9434 C   0  0  0  0  0  0  0  0  0  0  0  0
    3.5252   -0.9749    0.6764 C   0  0  0  0  0  0  0  0  0  0  0  0
    4.7775   -1.4441    0.2331 C   0  0  0  0  0  0  0  0  0  0  0  0
    4.8988   -2.0573   -1.0388 N   0  0  0  0  0  0  0  0  0  0  0  0
    6.1209   -2.5127   -1.5161 N   0  0  0  0  0  0  0  0  0  0  0  0
    5.8680   -3.0592   -2.7175 C   0  0  0  0  0  0  0  0  0  0  0  0
    4.5072   -2.9256   -3.0373 C   0  0  0  0  0  0  0  0  0  0  0  0
    3.6597   -3.2236   -4.0810 N   0  0  0  0  0  0  0  0  0  0  0  0
    2.5093   -2.7499   -3.5337 C   0  0  0  0  0  0  0  0  0  0  0  0
    2.6193   -2.1945   -2.2930 N   0  0  0  0  0  0  0  0  0  0  0  0
    3.9504   -2.3278   -2.0085 C   0  0  0  0  0  0  0  0  0  0  0  0
    5.8706   -1.3181    1.0156 N   0  0  0  0  0  0  0  0  0  0  0  0
    5.7128   -0.7462    2.2041 C   0  0  0  0  0  0  0  0  0  0  0  0
    4.5857   -0.2585    2.7103 N   0  0  0  0  0  0  0  0  0  0  0  0
    2.5579    0.0178    2.3426 H   0  0  0  0  0  0  0  0  0  0  0  0
    2.6265   -1.0549    0.0883 H   0  0  0  0  0  0  0  0  0  0  0  0
    6.6067   -3.5078   -3.3595 H   0  0  0  0  0  0  0  0  0  0  0  0
    1.5564   -2.7927   -4.0415 H   0  0  0  0  0  0  0  0  0  0  0  0
    6.5962   -0.6549    2.8113 H   0  0  0  0  0  0  0  0  0  0  0  0
    1.9028   -1.7530   -1.7120 H   0  0  0  0  0  0  0  0  0  0  0  0
  1 14  2  0
  1  2  1  0
  1 15  1  0
  2  3  2  0
  2 16  1  0
  3 12  1  0
  3  4  1  0
  4  5  1  0
  4 11  1  0
  5  6  2  0
  6  7  1  0
  6 17  1  0
  7  8  1  0
  7 11  2  0
  8  9  2  0
  9 10  1  0
  9 18  1  0
 10 20  1  0
 10 11  1  0
 12 13  2  0
 13 14  1  0
 13 19  1  0
M  END
>  <i_m_ct_stereo_status>  (303) 
1

>  <s_m_source_file>  (303) 
/var/tmp/pbs.5076255.sched01/tmpmzi298dc/117y2go66iu.sdf

>  <i_m_source_file_index>  (303) 
2

>  <i_lp_mmshare_version>  (303) 
48012

>  <i_f3d_flags>  (303) 
0

>  <s_epik_input>  (303) 
bjFbY0hdbltjSF1bY0hdYzEtbihuW2NIXTIpYyhjMjMpW25IXVtjSF1uMw==

>  <s_epik_cmdline>  (303) 
J2VwaWtfcHl0aG9uJywgJy1waHQnLCAnMi4wJywgJy1waCcsICc3LjAnLCAnLXRuJywgJzgnLCAnLW1hJywgJzIwMCcsICctaW1hZScsICc8aW5maWxlLm1hZT4nLCAnLW9tYWUnLCAnPG91dGZpbGUubWFlPic=

>  <r_lp_tautomer_probability>  (303) 
0.0196114

>  <r_epik_Ionization_Penalty>  (303) 
0.000103704

>  <r_epik_Ionization_Penalty_Charging>  (303) 
0.000103202

>  <r_epik_Ionization_Penalty_Neutral>  (303) 
5.02283e-07

>  <r_epik_State_Penalty>  (303) 
0.562125

>  <r_epik_Charging_Adjusted_Penalty>  (303) 
0.562228

>  <i_epik_Tot_Q>  (303) 
0

>  <i_epik_Tot_abs_Q>  (303) 
0

>  <s_lp_Force_Field>  (303) 
OPLS3e

>  <r_lp_Energy>  (303) 
20.5705

>  <b_lp_Chiralities_Consistent>  (303) 
1

>  <s_lp_Variant>  (303) 
89:0-2

>  <s_i_glide_gridfile>  (303) 
pfpi4k_grid

>  <i_i_glide_lignum>  (303) 
2

>  <i_i_glide_rotatable_bonds>  (303) 
1

>  <r_i_docking_score>  (303) 
-5.22217

>  <r_i_glide_ligand_efficiency>  (303) 
-0.373012

>  <r_i_glide_ligand_efficiency_sa>  (303) 
-0.899012

>  <r_i_glide_ligand_efficiency_ln>  (303) 
-1.43503

>  <r_i_glide_gscore>  (303) 
-5.22217

>  <r_i_glide_lipo>  (303) 
-0.30893

>  <r_i_glide_hbond>  (303) 
-0.259399

>  <r_i_glide_metal>  (303) 
-0

>  <r_i_glide_rewards>  (303) 
-2.57063

>  <r_i_glide_evdw>  (303) 
-21.948

>  <r_i_glide_ecoul>  (303) 
-8.92839

>  <r_i_glide_erotb>  (303) 
0.459853

>  <r_i_glide_esite>  (303) 
-0.106403

>  <r_i_glide_emodel>  (303) 
-41.9435

>  <r_i_glide_energy>  (303) 
-30.8763

>  <r_i_glide_einternal>  (303) 
0.211134

>  <r_i_glide_intrahb_reward>  (303) 
-0

>  <i_i_glide_confnum>  (303) 
4

>  <i_i_glide_posenum>  (303) 
30

>  <r_i_glide_eff_state_penalty>  (303) 
0

>  <ligand_id>  (303) 
89

>  <original_smiles>  (303) 
c1cc(-n2ncc3nc[nH]c32)ncn1

>  <smiles>  (303) 
[H]c1nc([H])c([H])c(-n2nc([H])c3nc([H])n([H])c32)n1

$$$$
89:1:1
     RDKit          3D

 20 22  0  0  1  0  0  0  0  0999 V2000
    3.1058   -0.3019    2.0494 C   0  0  0  0  0  0  0  0  0  0  0  0
    3.5830   -0.6357    0.7726 C   0  0  0  0  0  0  0  0  0  0  0  0
    3.4420   -1.9808    0.3860 C   0  0  0  0  0  0  0  0  0  0  0  0
    3.8966   -2.3835   -0.8818 N   0  0  0  0  0  0  0  0  0  0  0  0
    4.5777   -3.5782   -1.0714 N   0  0  0  0  0  0  0  0  0  0  0  0
    4.8153   -3.6551   -2.3948 C   0  0  0  0  0  0  0  0  0  0  0  0
    4.2973   -2.5189   -3.0456 C   0  0  0  0  0  0  0  0  0  0  0  0
    4.1955   -2.0064   -4.3184 N   0  0  0  0  0  0  0  0  0  0  0  0
    3.5435   -0.8562   -4.0349 C   0  0  0  0  0  0  0  0  0  0  0  0
    3.2359   -0.6590   -2.7215 N   0  0  0  0  0  0  0  0  0  0  0  0
    3.7638   -1.7703   -2.1094 C   0  0  0  0  0  0  0  0  0  0  0  0
    2.9025   -2.8982    1.2154 N   0  0  0  0  0  0  0  0  0  0  0  0
    2.5005   -2.4685    2.4012 C   0  0  0  0  0  0  0  0  0  0  0  0
    2.5659   -1.2260    2.8677 N   0  0  0  0  0  0  0  0  0  0  0  0
    3.1701    0.7073    2.4277 H   0  0  0  0  0  0  0  0  0  0  0  0
    4.0290    0.1018    0.1220 H   0  0  0  0  0  0  0  0  0  0  0  0
    5.3193   -4.4703   -2.8949 H   0  0  0  0  0  0  0  0  0  0  0  0
    3.2935   -0.1380   -4.8031 H   0  0  0  0  0  0  0  0  0  0  0  0
    2.0617   -3.2077    3.0450 H   0  0  0  0  0  0  0  0  0  0  0  0
    2.7335    0.1079   -2.3033 H   0  0  0  0  0  0  0  0  0  0  0  0
  1 14  2  0
  1  2  1  0
  1 15  1  0
  2  3  2  0
  2 16  1  0
  3 12  1  0
  3  4  1  0
  4  5  1  0
  4 11  1  0
  5  6  2  0
  6  7  1  0
  6 17  1  0
  7  8  1  0
  7 11  2  0
  8  9  2  0
  9 10  1  0
  9 18  1  0
 10 20  1  0
 10 11  1  0
 12 13  2  0
 13 14  1  0
 13 19  1  0
M  END
>  <i_m_ct_stereo_status>  (304) 
1

>  <s_m_source_file>  (304) 
/var/tmp/pbs.5076255.sched01/tmpmzi298dc/117y2go66iu.sdf

>  <i_m_source_file_index>  (304) 
2

>  <i_lp_mmshare_version>  (304) 
48012

>  <i_f3d_flags>  (304) 
0

>  <s_epik_input>  (304) 
bjFbY0hdbltjSF1bY0hdYzEtbihuW2NIXTIpYyhjMjMpW25IXVtjSF1uMw==

>  <s_epik_cmdline>  (304) 
J2VwaWtfcHl0aG9uJywgJy1waHQnLCAnMi4wJywgJy1waCcsICc3LjAnLCAnLXRuJywgJzgnLCAnLW1hJywgJzIwMCcsICctaW1hZScsICc8aW5maWxlLm1hZT4nLCAnLW9tYWUnLCAnPG91dGZpbGUubWFlPic=

>  <r_lp_tautomer_probability>  (304) 
0.0196114

>  <r_epik_Ionization_Penalty>  (304) 
0.000103704

>  <r_epik_Ionization_Penalty_Charging>  (304) 
0.000103202

>  <r_epik_Ionization_Penalty_Neutral>  (304) 
5.02283e-07

>  <r_epik_State_Penalty>  (304) 
0.562125

>  <r_epik_Charging_Adjusted_Penalty>  (304) 
0.562228

>  <i_epik_Tot_Q>  (304) 
0

>  <i_epik_Tot_abs_Q>  (304) 
0

>  <s_lp_Force_Field>  (304) 
OPLS3e

>  <r_lp_Energy>  (304) 
20.5705

>  <b_lp_Chiralities_Consistent>  (304) 
1

>  <s_lp_Variant>  (304) 
89:0-2

>  <s_i_glide_gridfile>  (304) 
pfpi4k_grid

>  <i_i_glide_lignum>  (304) 
2

>  <i_i_glide_rotatable_bonds>  (304) 
1

>  <r_i_docking_score>  (304) 
-4.35405

>  <r_i_glide_ligand_efficiency>  (304) 
-0.311003

>  <r_i_glide_ligand_efficiency_sa>  (304) 
-0.749563

>  <r_i_glide_ligand_efficiency_ln>  (304) 
-1.19648

>  <r_i_glide_gscore>  (304) 
-4.35405

>  <r_i_glide_lipo>  (304) 
-0.140109

>  <r_i_glide_hbond>  (304) 
-0.349534

>  <r_i_glide_metal>  (304) 
-0

>  <r_i_glide_rewards>  (304) 
-2.3751

>  <r_i_glide_evdw>  (304) 
-19.3731

>  <r_i_glide_ecoul>  (304) 
-5.39397

>  <r_i_glide_erotb>  (304) 
0.459853

>  <r_i_glide_esite>  (304) 
-0.171409

>  <r_i_glide_emodel>  (304) 
-33.3372

>  <r_i_glide_energy>  (304) 
-24.767

>  <r_i_glide_einternal>  (304) 
1.36541

>  <r_i_glide_intrahb_reward>  (304) 
-0

>  <i_i_glide_confnum>  (304) 
4

>  <i_i_glide_posenum>  (304) 
16

>  <r_i_glide_eff_state_penalty>  (304) 
0

>  <ligand_id>  (304) 
89

>  <original_smiles>  (304) 
c1cc(-n2ncc3nc[nH]c32)ncn1

>  <smiles>  (304) 
[H]c1nc([H])c([H])c(-n2nc([H])c3nc([H])n([H])c32)n1

$$$$
89:1:2
     RDKit          3D

 20 22  0  0  1  0  0  0  0  0999 V2000
    0.8541    1.0449    2.4657 C   0  0  0  0  0  0  0  0  0  0  0  0
    1.8997    0.5357    1.6792 C   0  0  0  0  0  0  0  0  0  0  0  0
    3.0564    0.0886    2.3433 C   0  0  0  0  0  0  0  0  0  0  0  0
    4.1384   -0.4430    1.5989 N   0  0  0  0  0  0  0  0  0  0  0  0
    5.4148   -0.5261    2.1385 N   0  0  0  0  0  0  0  0  0  0  0  0
    6.1934   -1.0671    1.1867 C   0  0  0  0  0  0  0  0  0  0  0  0
    5.4228   -1.3419    0.0384 C   0  0  0  0  0  0  0  0  0  0  0  0
    5.6042   -1.8679   -1.2270 N   0  0  0  0  0  0  0  0  0  0  0  0
    4.3149   -1.7810   -1.6560 C   0  0  0  0  0  0  0  0  0  0  0  0
    3.4144   -1.2454   -0.7732 N   0  0  0  0  0  0  0  0  0  0  0  0
    4.1963   -0.9651    0.3193 C   0  0  0  0  0  0  0  0  0  0  0  0
    3.1353    0.1619    3.6880 N   0  0  0  0  0  0  0  0  0  0  0  0
    2.0899    0.6636    4.3367 C   0  0  0  0  0  0  0  0  0  0  0  0
    0.9491    1.0949    3.8071 N   0  0  0  0  0  0  0  0  0  0  0  0
   -0.0643    1.3951    2.0141 H   0  0  0  0  0  0  0  0  0  0  0  0
    1.8031    0.4910    0.6072 H   0  0  0  0  0  0  0  0  0  0  0  0
    7.2516   -1.2496    1.2906 H   0  0  0  0  0  0  0  0  0  0  0  0
    4.0148   -2.1148   -2.6396 H   0  0  0  0  0  0  0  0  0  0  0  0
    2.1734    0.7058    5.4078 H   0  0  0  0  0  0  0  0  0  0  0  0
    2.4093   -1.0754   -0.8792 H   0  0  0  0  0  0  0  0  0  0  0  0
  1 14  2  0
  1  2  1  0
  1 15  1  0
  2  3  2  0
  2 16  1  0
  3 12  1  0
  3  4  1  0
  4  5  1  0
  4 11  1  0
  5  6  2  0
  6  7  1  0
  6 17  1  0
  7  8  1  0
  7 11  2  0
  8  9  2  0
  9 10  1  0
  9 18  1  0
 10 20  1  0
 10 11  1  0
 12 13  2  0
 13 14  1  0
 13 19  1  0
M  END
>  <i_m_ct_stereo_status>  (305) 
1

>  <s_m_source_file>  (305) 
/var/tmp/pbs.5076255.sched01/tmpmzi298dc/117y2go66iu.sdf

>  <i_m_source_file_index>  (305) 
2

>  <i_lp_mmshare_version>  (305) 
48012

>  <i_f3d_flags>  (305) 
0

>  <s_epik_input>  (305) 
bjFbY0hdbltjSF1bY0hdYzEtbihuW2NIXTIpYyhjMjMpW25IXVtjSF1uMw==

>  <s_epik_cmdline>  (305) 
J2VwaWtfcHl0aG9uJywgJy1waHQnLCAnMi4wJywgJy1waCcsICc3LjAnLCAnLXRuJywgJzgnLCAnLW1hJywgJzIwMCcsICctaW1hZScsICc8aW5maWxlLm1hZT4nLCAnLW9tYWUnLCAnPG91dGZpbGUubWFlPic=

>  <r_lp_tautomer_probability>  (305) 
0.0196114

>  <r_epik_Ionization_Penalty>  (305) 
0.000103704

>  <r_epik_Ionization_Penalty_Charging>  (305) 
0.000103202

>  <r_epik_Ionization_Penalty_Neutral>  (305) 
5.02283e-07

>  <r_epik_State_Penalty>  (305) 
0.562125

>  <r_epik_Charging_Adjusted_Penalty>  (305) 
0.562228

>  <i_epik_Tot_Q>  (305) 
0

>  <i_epik_Tot_abs_Q>  (305) 
0

>  <s_lp_Force_Field>  (305) 
OPLS3e

>  <r_lp_Energy>  (305) 
20.5705

>  <b_lp_Chiralities_Consistent>  (305) 
1

>  <s_lp_Variant>  (305) 
89:0-2

>  <s_i_glide_gridfile>  (305) 
pfpi4k_grid

>  <i_i_glide_lignum>  (305) 
2

>  <i_i_glide_rotatable_bonds>  (305) 
1

>  <r_i_docking_score>  (305) 
-4.20402

>  <r_i_glide_ligand_efficiency>  (305) 
-0.300287

>  <r_i_glide_ligand_efficiency_sa>  (305) 
-0.723735

>  <r_i_glide_ligand_efficiency_ln>  (305) 
-1.15525

>  <r_i_glide_gscore>  (305) 
-4.20402

>  <r_i_glide_lipo>  (305) 
-0.127317

>  <r_i_glide_hbond>  (305) 
-0.200536

>  <r_i_glide_metal>  (305) 
-0

>  <r_i_glide_rewards>  (305) 
-2.30374

>  <r_i_glide_evdw>  (305) 
-16.7858

>  <r_i_glide_ecoul>  (305) 
-7.03899

>  <r_i_glide_erotb>  (305) 
0.459853

>  <r_i_glide_esite>  (305) 
-0.137142

>  <r_i_glide_emodel>  (305) 
-32.5903

>  <r_i_glide_energy>  (305) 
-23.8247

>  <r_i_glide_einternal>  (305) 
0.423505

>  <r_i_glide_intrahb_reward>  (305) 
-0

>  <i_i_glide_confnum>  (305) 
4

>  <i_i_glide_posenum>  (305) 
22

>  <r_i_glide_eff_state_penalty>  (305) 
0

>  <ligand_id>  (305) 
89

>  <original_smiles>  (305) 
c1cc(-n2ncc3nc[nH]c32)ncn1

>  <smiles>  (305) 
[H]c1nc([H])c([H])c(-n2nc([H])c3nc([H])n([H])c32)n1

$$$$
90:0:0
     RDKit          3D

 21 21  0  0  1  0  0  0  0  0999 V2000
    5.5135   -4.2403   -0.5325 C   0  0  0  0  0  0  0  0  0  0  0  0
    5.1984   -5.1755    0.6396 C   0  0  0  0  0  0  0  0  0  0  0  0
    3.7661   -5.7146    0.5743 C   0  0  0  0  0  0  0  0  0  0  0  0
    3.3848   -6.5557    1.8025 C   0  0  0  0  0  0  0  0  0  0  0  0
    2.0092   -7.0226    1.7570 N   0  0  0  0  0  0  0  0  0  0  0  0
    0.9813   -6.2588    1.3336 N   0  0  0  0  0  0  0  0  0  0  0  0
   -0.0870   -6.9612    1.5260 N   0  0  0  0  0  0  0  0  0  0  0  0
    0.3242   -8.1446    2.0848 C   0  0  0  0  0  0  0  0  0  0  0  0
   -0.5997   -9.2207    2.4815 N   0  0  0  0  0  0  0  0  0  0  0  0
   -1.8064   -9.0113    2.3843 O   0  0  0  0  0  0  0  0  0  0  0  0
   -0.1101  -10.2643    2.8918 O   0  0  0  0  0  0  0  0  0  0  0  0
    1.6372   -8.2066    2.2656 N   0  0  0  0  0  0  0  0  0  0  0  0
    6.5354   -3.8677   -0.4655 H   0  0  0  0  0  0  0  0  0  0  0  0
    4.8447   -3.3784   -0.5408 H   0  0  0  0  0  0  0  0  0  0  0  0
    5.4011   -4.7510   -1.4897 H   0  0  0  0  0  0  0  0  0  0  0  0
    5.9045   -6.0071    0.6490 H   0  0  0  0  0  0  0  0  0  0  0  0
    5.3381   -4.6326    1.5751 H   0  0  0  0  0  0  0  0  0  0  0  0
    3.0814   -4.8708    0.4723 H   0  0  0  0  0  0  0  0  0  0  0  0
    3.6485   -6.3230   -0.3211 H   0  0  0  0  0  0  0  0  0  0  0  0
    4.0388   -7.4274    1.8762 H   0  0  0  0  0  0  0  0  0  0  0  0
    3.5073   -5.9729    2.7168 H   0  0  0  0  0  0  0  0  0  0  0  0
  1  2  1  0
  1 13  1  0
  1 14  1  0
  1 15  1  0
  2  3  1  0
  2 16  1  0
  2 17  1  0
  3  4  1  0
  3 18  1  0
  3 19  1  0
  4  5  1  0
  4 20  1  0
  4 21  1  0
  5 12  1  0
  5  6  1  0
  6  7  2  0
  7  8  1  0
  8  9  1  0
  8 12  2  0
  9 10  2  0
  9 11  1  0
M  CHG  2   9   1  11  -1
M  END
>  <i_m_ct_stereo_status>  (306) 
1

>  <s_m_source_file>  (306) 
/var/tmp/pbs.5076255.sched01/tmpmzi298dc/117y2go66iu.sdf

>  <i_m_source_file_index>  (306) 
3

>  <i_lp_mmshare_version>  (306) 
48012

>  <i_f3d_flags>  (306) 
0

>  <s_epik_input>  (306) 
W0NIM11bQ0gyXVtDSDJdW0NIMl1uMW5uYyhuMSlbTitdKD1PKVtPLV0=

>  <s_epik_cmdline>  (306) 
J2VwaWtfcHl0aG9uJywgJy1waHQnLCAnMi4wJywgJy1waCcsICc3LjAnLCAnLXRuJywgJzgnLCAnLW1hJywgJzIwMCcsICctaW1hZScsICc8aW5maWxlLm1hZT4nLCAnLW9tYWUnLCAnPG91dGZpbGUubWFlPic=

>  <r_lp_tautomer_probability>  (306) 
1

>  <r_epik_Ionization_Penalty>  (306) 
5.96288e-11

>  <r_epik_Ionization_Penalty_Charging>  (306) 
0

>  <r_epik_Ionization_Penalty_Neutral>  (306) 
5.96288e-11

>  <r_epik_State_Penalty>  (306) 
-0

>  <r_epik_Charging_Adjusted_Penalty>  (306) 
0

>  <i_epik_Tot_Q>  (306) 
0

>  <i_epik_Tot_abs_Q>  (306) 
2

>  <s_lp_Force_Field>  (306) 
OPLS3e

>  <r_lp_Energy>  (306) 
8.56188

>  <b_lp_Chiralities_Consistent>  (306) 
1

>  <s_lp_Variant>  (306) 
90:0-1

>  <s_i_glide_gridfile>  (306) 
pfpi4k_grid

>  <i_i_glide_lignum>  (306) 
3

>  <i_i_glide_rotatable_bonds>  (306) 
4

>  <r_i_docking_score>  (306) 
-3.23293

>  <r_i_glide_ligand_efficiency>  (306) 
-0.269411

>  <r_i_glide_ligand_efficiency_sa>  (306) 
-0.616797

>  <r_i_glide_ligand_efficiency_ln>  (306) 
-0.927696

>  <r_i_glide_gscore>  (306) 
-3.23293

>  <r_i_glide_lipo>  (306) 
-0.19435

>  <r_i_glide_hbond>  (306) 
0

>  <r_i_glide_metal>  (306) 
-0

>  <r_i_glide_rewards>  (306) 
-2.35247

>  <r_i_glide_evdw>  (306) 
-17.5592

>  <r_i_glide_ecoul>  (306) 
-3.9541

>  <r_i_glide_erotb>  (306) 
1.05579

>  <r_i_glide_esite>  (306) 
-0.270831

>  <r_i_glide_emodel>  (306) 
-25.576

>  <r_i_glide_energy>  (306) 
-21.5133

>  <r_i_glide_einternal>  (306) 
0.710798

>  <r_i_glide_intrahb_reward>  (306) 
-0

>  <i_i_glide_confnum>  (306) 
4

>  <i_i_glide_posenum>  (306) 
23

>  <r_i_glide_eff_state_penalty>  (306) 
0

>  <ligand_id>  (306) 
90

>  <original_smiles>  (306) 
CCCCn1nnc([N+](=O)[O-])n1

>  <smiles>  (306) 
[H]C([H])([H])C([H])([H])C([H])([H])C([H])([H])n1nnc([N+](=O)[O-])n1

$$$$
90:0:1
     RDKit          3D

 21 21  0  0  1  0  0  0  0  0999 V2000
    5.1389   -4.1008    0.7669 C   0  0  0  0  0  0  0  0  0  0  0  0
    5.2731   -5.6062    0.4937 C   0  0  0  0  0  0  0  0  0  0  0  0
    3.9291   -6.3510    0.5034 C   0  0  0  0  0  0  0  0  0  0  0  0
    3.2659   -6.3555    1.8921 C   0  0  0  0  0  0  0  0  0  0  0  0
    1.9468   -6.9509    1.8673 N   0  0  0  0  0  0  0  0  0  0  0  0
    0.8494   -6.2746    1.4773 N   0  0  0  0  0  0  0  0  0  0  0  0
   -0.1472   -7.0758    1.6749 N   0  0  0  0  0  0  0  0  0  0  0  0
    0.3881   -8.2409    2.1674 C   0  0  0  0  0  0  0  0  0  0  0  0
   -0.4095   -9.4261    2.5331 N   0  0  0  0  0  0  0  0  0  0  0  0
   -1.6325   -9.3338    2.4786 O   0  0  0  0  0  0  0  0  0  0  0  0
    0.1982  -10.4320    2.8794 O   0  0  0  0  0  0  0  0  0  0  0  0
    1.7061   -8.1937    2.3052 N   0  0  0  0  0  0  0  0  0  0  0  0
    6.1100   -3.6077    0.7246 H   0  0  0  0  0  0  0  0  0  0  0  0
    4.7295   -3.9003    1.7564 H   0  0  0  0  0  0  0  0  0  0  0  0
    4.4852   -3.6279    0.0320 H   0  0  0  0  0  0  0  0  0  0  0  0
    5.7348   -5.7375   -0.4827 H   0  0  0  0  0  0  0  0  0  0  0  0
    5.9572   -6.0585    1.2133 H   0  0  0  0  0  0  0  0  0  0  0  0
    3.2631   -5.9060   -0.2393 H   0  0  0  0  0  0  0  0  0  0  0  0
    4.0983   -7.3816    0.1846 H   0  0  0  0  0  0  0  0  0  0  0  0
    3.8873   -6.9056    2.6019 H   0  0  0  0  0  0  0  0  0  0  0  0
    3.1468   -5.3436    2.2831 H   0  0  0  0  0  0  0  0  0  0  0  0
  1  2  1  0
  1 13  1  0
  1 14  1  0
  1 15  1  0
  2  3  1  0
  2 16  1  0
  2 17  1  0
  3  4  1  0
  3 18  1  0
  3 19  1  0
  4  5  1  0
  4 20  1  0
  4 21  1  0
  5 12  1  0
  5  6  1  0
  6  7  2  0
  7  8  1  0
  8  9  1  0
  8 12  2  0
  9 10  2  0
  9 11  1  0
M  CHG  2   9   1  11  -1
M  END
>  <i_m_ct_stereo_status>  (307) 
1

>  <s_m_source_file>  (307) 
/var/tmp/pbs.5076255.sched01/tmpmzi298dc/117y2go66iu.sdf

>  <i_m_source_file_index>  (307) 
3

>  <i_lp_mmshare_version>  (307) 
48012

>  <i_f3d_flags>  (307) 
0

>  <s_epik_input>  (307) 
W0NIM11bQ0gyXVtDSDJdW0NIMl1uMW5uYyhuMSlbTitdKD1PKVtPLV0=

>  <s_epik_cmdline>  (307) 
J2VwaWtfcHl0aG9uJywgJy1waHQnLCAnMi4wJywgJy1waCcsICc3LjAnLCAnLXRuJywgJzgnLCAnLW1hJywgJzIwMCcsICctaW1hZScsICc8aW5maWxlLm1hZT4nLCAnLW9tYWUnLCAnPG91dGZpbGUubWFlPic=

>  <r_lp_tautomer_probability>  (307) 
1

>  <r_epik_Ionization_Penalty>  (307) 
5.96288e-11

>  <r_epik_Ionization_Penalty_Charging>  (307) 
0

>  <r_epik_Ionization_Penalty_Neutral>  (307) 
5.96288e-11

>  <r_epik_State_Penalty>  (307) 
-0

>  <r_epik_Charging_Adjusted_Penalty>  (307) 
0

>  <i_epik_Tot_Q>  (307) 
0

>  <i_epik_Tot_abs_Q>  (307) 
2

>  <s_lp_Force_Field>  (307) 
OPLS3e

>  <r_lp_Energy>  (307) 
8.56188

>  <b_lp_Chiralities_Consistent>  (307) 
1

>  <s_lp_Variant>  (307) 
90:0-1

>  <s_i_glide_gridfile>  (307) 
pfpi4k_grid

>  <i_i_glide_lignum>  (307) 
3

>  <i_i_glide_rotatable_bonds>  (307) 
4

>  <r_i_docking_score>  (307) 
-3.22994

>  <r_i_glide_ligand_efficiency>  (307) 
-0.269162

>  <r_i_glide_ligand_efficiency_sa>  (307) 
-0.616227

>  <r_i_glide_ligand_efficiency_ln>  (307) 
-0.926838

>  <r_i_glide_gscore>  (307) 
-3.22994

>  <r_i_glide_lipo>  (307) 
-0.28226

>  <r_i_glide_hbond>  (307) 
0

>  <r_i_glide_metal>  (307) 
-0

>  <r_i_glide_rewards>  (307) 
-2.30022

>  <r_i_glide_evdw>  (307) 
-16.8896

>  <r_i_glide_ecoul>  (307) 
-3.93085

>  <r_i_glide_erotb>  (307) 
1.05579

>  <r_i_glide_esite>  (307) 
-0.269153

>  <r_i_glide_emodel>  (307) 
-24.6107

>  <r_i_glide_energy>  (307) 
-20.8205

>  <r_i_glide_einternal>  (307) 
1.15503

>  <r_i_glide_intrahb_reward>  (307) 
-0

>  <i_i_glide_confnum>  (307) 
4

>  <i_i_glide_posenum>  (307) 
17

>  <r_i_glide_eff_state_penalty>  (307) 
0

>  <ligand_id>  (307) 
90

>  <original_smiles>  (307) 
CCCCn1nnc([N+](=O)[O-])n1

>  <smiles>  (307) 
[H]C([H])([H])C([H])([H])C([H])([H])C([H])([H])n1nnc([N+](=O)[O-])n1

$$$$
90:0:2
     RDKit          3D

 21 21  0  0  1  0  0  0  0  0999 V2000
    5.7444   -4.8093    0.5360 C   0  0  0  0  0  0  0  0  0  0  0  0
    5.4500   -5.5092    1.8699 C   0  0  0  0  0  0  0  0  0  0  0  0
    3.9598   -5.8081    2.0794 C   0  0  0  0  0  0  0  0  0  0  0  0
    3.3893   -6.7914    1.0460 C   0  0  0  0  0  0  0  0  0  0  0  0
    1.9969   -7.0654    1.3193 N   0  0  0  0  0  0  0  0  0  0  0  0
    0.9986   -6.2667    0.8959 N   0  0  0  0  0  0  0  0  0  0  0  0
   -0.0881   -6.7755    1.3806 N   0  0  0  0  0  0  0  0  0  0  0  0
    0.2927   -7.8962    2.0783 C   0  0  0  0  0  0  0  0  0  0  0  0
   -0.6512   -8.7774    2.7875 N   0  0  0  0  0  0  0  0  0  0  0  0
   -1.8228   -8.4206    2.8624 O   0  0  0  0  0  0  0  0  0  0  0  0
   -0.2070   -9.8130    3.2687 O   0  0  0  0  0  0  0  0  0  0  0  0
    1.6017   -8.1015    2.0708 N   0  0  0  0  0  0  0  0  0  0  0  0
    6.8089   -4.6002    0.4365 H   0  0  0  0  0  0  0  0  0  0  0  0
    5.2036   -3.8645    0.4633 H   0  0  0  0  0  0  0  0  0  0  0  0
    5.4586   -5.4248   -0.3175 H   0  0  0  0  0  0  0  0  0  0  0  0
    6.0240   -6.4340    1.9418 H   0  0  0  0  0  0  0  0  0  0  0  0
    5.7919   -4.8748    2.6873 H   0  0  0  0  0  0  0  0  0  0  0  0
    3.8178   -6.2282    3.0770 H   0  0  0  0  0  0  0  0  0  0  0  0
    3.3868   -4.8792    2.0570 H   0  0  0  0  0  0  0  0  0  0  0  0
    3.4513   -6.3959    0.0313 H   0  0  0  0  0  0  0  0  0  0  0  0
    3.9372   -7.7351    1.0674 H   0  0  0  0  0  0  0  0  0  0  0  0
  1  2  1  0
  1 13  1  0
  1 14  1  0
  1 15  1  0
  2  3  1  0
  2 16  1  0
  2 17  1  0
  3  4  1  0
  3 18  1  0
  3 19  1  0
  4  5  1  0
  4 20  1  0
  4 21  1  0
  5 12  1  0
  5  6  1  0
  6  7  2  0
  7  8  1  0
  8  9  1  0
  8 12  2  0
  9 10  2  0
  9 11  1  0
M  CHG  2   9   1  11  -1
M  END
>  <i_m_ct_stereo_status>  (308) 
1

>  <s_m_source_file>  (308) 
/var/tmp/pbs.5076255.sched01/tmpmzi298dc/117y2go66iu.sdf

>  <i_m_source_file_index>  (308) 
3

>  <i_lp_mmshare_version>  (308) 
48012

>  <i_f3d_flags>  (308) 
0

>  <s_epik_input>  (308) 
W0NIM11bQ0gyXVtDSDJdW0NIMl1uMW5uYyhuMSlbTitdKD1PKVtPLV0=

>  <s_epik_cmdline>  (308) 
J2VwaWtfcHl0aG9uJywgJy1waHQnLCAnMi4wJywgJy1waCcsICc3LjAnLCAnLXRuJywgJzgnLCAnLW1hJywgJzIwMCcsICctaW1hZScsICc8aW5maWxlLm1hZT4nLCAnLW9tYWUnLCAnPG91dGZpbGUubWFlPic=

>  <r_lp_tautomer_probability>  (308) 
1

>  <r_epik_Ionization_Penalty>  (308) 
5.96288e-11

>  <r_epik_Ionization_Penalty_Charging>  (308) 
0

>  <r_epik_Ionization_Penalty_Neutral>  (308) 
5.96288e-11

>  <r_epik_State_Penalty>  (308) 
-0

>  <r_epik_Charging_Adjusted_Penalty>  (308) 
0

>  <i_epik_Tot_Q>  (308) 
0

>  <i_epik_Tot_abs_Q>  (308) 
2

>  <s_lp_Force_Field>  (308) 
OPLS3e

>  <r_lp_Energy>  (308) 
8.56188

>  <b_lp_Chiralities_Consistent>  (308) 
1

>  <s_lp_Variant>  (308) 
90:0-1

>  <s_i_glide_gridfile>  (308) 
pfpi4k_grid

>  <i_i_glide_lignum>  (308) 
3

>  <i_i_glide_rotatable_bonds>  (308) 
4

>  <r_i_docking_score>  (308) 
-3.15034

>  <r_i_glide_ligand_efficiency>  (308) 
-0.262528

>  <r_i_glide_ligand_efficiency_sa>  (308) 
-0.601039

>  <r_i_glide_ligand_efficiency_ln>  (308) 
-0.903995

>  <r_i_glide_gscore>  (308) 
-3.15034

>  <r_i_glide_lipo>  (308) 
-0.19727

>  <r_i_glide_hbond>  (308) 
0

>  <r_i_glide_metal>  (308) 
-0

>  <r_i_glide_rewards>  (308) 
-2.24211

>  <r_i_glide_evdw>  (308) 
-17.0042

>  <r_i_glide_ecoul>  (308) 
-3.70453

>  <r_i_glide_erotb>  (308) 
1.05579

>  <r_i_glide_esite>  (308) 
-0.360863

>  <r_i_glide_emodel>  (308) 
-24.4993

>  <r_i_glide_energy>  (308) 
-20.7087

>  <r_i_glide_einternal>  (308) 
0.983878

>  <r_i_glide_intrahb_reward>  (308) 
-0

>  <i_i_glide_confnum>  (308) 
1

>  <i_i_glide_posenum>  (308) 
10

>  <r_i_glide_eff_state_penalty>  (308) 
0

>  <ligand_id>  (308) 
90

>  <original_smiles>  (308) 
CCCCn1nnc([N+](=O)[O-])n1

>  <smiles>  (308) 
[H]C([H])([H])C([H])([H])C([H])([H])C([H])([H])n1nnc([N+](=O)[O-])n1

$$$$
91:0:0
     RDKit          3D

 80 85  0  0  1  0  0  0  0  0999 V2000
   -1.6146    0.7047    4.8482 C   0  0  0  0  0  0  0  0  0  0  0  0
   -0.5513    0.0012    5.4763 O   0  0  0  0  0  0  0  0  0  0  0  0
    0.2641   -0.7668    4.5899 C   0  0  2  0  0  0  0  0  0  0  0  0
    0.3214   -2.2165    5.1888 C   0  0  0  0  0  0  0  0  0  0  0  0
    1.5309   -2.8659    4.5591 C   0  0  2  0  0  0  0  0  0  0  0  0
    2.1612   -4.2964    4.5592 C   0  0  1  0  0  0  0  0  0  0  0  0
    1.4643   -5.1480    5.6393 C   0  0  0  0  0  0  0  0  0  0  0  0
    2.3493   -5.1402    3.2467 C   0  0  1  0  0  0  0  0  0  0  0  0
    1.1889   -5.9025    2.9336 O   0  0  0  0  0  0  0  0  0  0  0  0
    1.1864   -7.2495    3.3181 C   0  0  2  0  0  0  0  0  0  0  0  0
    2.2110   -7.9584    2.6799 O   0  0  0  0  0  0  0  0  0  0  0  0
    2.3628   -9.2781    3.1937 C   0  0  0  0  0  0  0  0  0  0  0  0
    1.0924  -10.0534    2.8016 C   0  0  1  0  0  0  0  0  0  0  0  0
    1.1207  -11.3821    3.2988 O   0  0  0  0  0  0  0  0  0  0  0  0
   -0.1735   -9.3336    3.3175 C   0  0  1  0  0  0  0  0  0  0  0  0
   -0.1740   -9.4475    4.7506 O   0  0  0  0  0  0  0  0  0  0  0  0
   -0.1629   -7.8669    2.8844 C   0  0  1  0  0  0  0  0  0  0  0  0
   -1.2462   -7.2376    3.5220 O   0  0  0  0  0  0  0  0  0  0  0  0
    2.6463   -4.3932    1.9135 C   0  0  0  0  0  0  0  0  0  0  0  0
    3.9671   -3.6374    1.8018 C   0  0  2  0  0  0  0  0  0  0  0  0
    4.1109   -2.1148    1.9382 C   0  0  2  0  0  0  0  0  0  0  0  0
    2.9964   -1.1467    2.3560 C   0  0  1  0  0  0  0  0  0  0  0  0
    1.7630   -1.3266    1.6822 O   0  0  0  0  0  0  0  0  0  0  0  0
    2.8809   -0.8928    3.9358 C   0  0  1  0  0  0  0  0  0  0  0  0
    4.0584   -0.1286    4.1758 O   0  0  0  0  0  0  0  0  0  0  0  0
    1.6452    0.0011    4.3740 C   0  0  1  0  0  0  0  0  0  0  0  0
    1.4924    1.2627    3.5160 C   0  0  0  0  0  0  0  0  0  0  0  0
    2.8021   -2.0987    4.9254 C   0  0  1  0  0  0  0  0  0  0  0  0
    3.4502   -1.6755    6.2954 C   0  0  1  0  0  0  0  0  0  0  0  0
    2.7960   -2.1898    7.4599 O   0  0  0  0  0  0  0  0  0  0  0  0
    4.9184   -2.2878    6.1945 C   0  0  0  0  0  0  0  0  0  0  0  0
    4.8870   -3.4126    5.0957 C   0  0  0  0  0  0  0  0  0  0  0  0
    3.4033   -3.4659    4.9346 C   0  0  2  0  0  0  0  0  0  0  0  0
    4.3061   -2.7775    0.5724 C   0  0  0  0  0  0  0  0  0  0  0  0
    5.7167   -2.8481    0.0085 C   0  0  0  0  0  0  0  0  0  0  0  0
    3.3413   -2.6252   -0.5852 C   0  0  0  0  0  0  0  0  0  0  0  0
   -2.0895    1.3810    5.5664 H   0  0  0  0  0  0  0  0  0  0  0  0
   -2.3672   -0.0014    4.4930 H   0  0  0  0  0  0  0  0  0  0  0  0
   -1.2689    1.3094    4.0075 H   0  0  0  0  0  0  0  0  0  0  0  0
   -0.1950   -0.8826    3.6134 H   0  0  0  0  0  0  0  0  0  0  0  0
    0.3973   -2.1734    6.2840 H   0  0  0  0  0  0  0  0  0  0  0  0
   -0.6009   -2.7564    4.9661 H   0  0  0  0  0  0  0  0  0  0  0  0
    1.3468   -2.7765    3.4992 H   0  0  0  0  0  0  0  0  0  0  0  0
    2.0304   -6.0335    5.9136 H   0  0  0  0  0  0  0  0  0  0  0  0
    0.4784   -5.4696    5.3165 H   0  0  0  0  0  0  0  0  0  0  0  0
    1.2744   -4.5649    6.5386 H   0  0  0  0  0  0  0  0  0  0  0  0
    3.1874   -5.8114    3.3903 H   0  0  0  0  0  0  0  0  0  0  0  0
    1.3380   -7.3264    4.3898 H   0  0  0  0  0  0  0  0  0  0  0  0
    3.2543   -9.7312    2.7629 H   0  0  0  0  0  0  0  0  0  0  0  0
    2.5145   -9.2569    4.2743 H   0  0  0  0  0  0  0  0  0  0  0  0
    1.0474  -10.0762    1.7161 H   0  0  0  0  0  0  0  0  0  0  0  0
    1.1587  -11.3338    4.2342 H   0  0  0  0  0  0  0  0  0  0  0  0
   -1.0654   -9.8371    2.9450 H   0  0  0  0  0  0  0  0  0  0  0  0
   -0.8472  -10.1077    4.9613 H   0  0  0  0  0  0  0  0  0  0  0  0
   -0.2625   -7.7669    1.8128 H   0  0  0  0  0  0  0  0  0  0  0  0
   -1.2060   -7.4992    4.4236 H   0  0  0  0  0  0  0  0  0  0  0  0
    2.6862   -5.1392    1.1233 H   0  0  0  0  0  0  0  0  0  0  0  0
    1.8071   -3.7580    1.6515 H   0  0  0  0  0  0  0  0  0  0  0  0
    4.8112   -4.2232    2.1690 H   0  0  0  0  0  0  0  0  0  0  0  0
    5.0556   -1.7889    2.3568 H   0  0  0  0  0  0  0  0  0  0  0  0
    3.3122   -0.2001    1.9457 H   0  0  0  0  0  0  0  0  0  0  0  0
    1.7984   -1.0797    0.7794 H   0  0  0  0  0  0  0  0  0  0  0  0
    4.0441    0.6375    3.6447 H   0  0  0  0  0  0  0  0  0  0  0  0
    1.8934    0.3757    5.3733 H   0  0  0  0  0  0  0  0  0  0  0  0
    1.0707    1.0304    2.5451 H   0  0  0  0  0  0  0  0  0  0  0  0
    2.4409    1.7658    3.3504 H   0  0  0  0  0  0  0  0  0  0  0  0
    0.8410    1.9783    3.9996 H   0  0  0  0  0  0  0  0  0  0  0  0
    3.4936   -0.5991    6.4816 H   0  0  0  0  0  0  0  0  0  0  0  0
    2.7647   -3.1210    7.3851 H   0  0  0  0  0  0  0  0  0  0  0  0
    5.6209   -1.5088    5.8932 H   0  0  0  0  0  0  0  0  0  0  0  0
    5.2556   -2.6801    7.1555 H   0  0  0  0  0  0  0  0  0  0  0  0
    5.3513   -3.0447    4.1753 H   0  0  0  0  0  0  0  0  0  0  0  0
    5.3567   -4.3553    5.3816 H   0  0  0  0  0  0  0  0  0  0  0  0
    3.2942   -3.9038    5.9230 H   0  0  0  0  0  0  0  0  0  0  0  0
    5.9493   -1.9244   -0.5312 H   0  0  0  0  0  0  0  0  0  0  0  0
    5.8009   -3.6874   -0.6905 H   0  0  0  0  0  0  0  0  0  0  0  0
    6.4458   -2.9860    0.8066 H   0  0  0  0  0  0  0  0  0  0  0  0
    3.4675   -1.6445   -1.0571 H   0  0  0  0  0  0  0  0  0  0  0  0
    2.2957   -2.7345   -0.2865 H   0  0  0  0  0  0  0  0  0  0  0  0
    3.5353   -3.3873   -1.3468 H   0  0  0  0  0  0  0  0  0  0  0  0
  1  2  1  0
  1 37  1  0
  1 38  1  0
  1 39  1  0
  2  3  1  0
  3 26  1  0
  3  4  1  0
  3 40  1  6
  4  5  1  0
  4 41  1  0
  4 42  1  0
  5 28  1  0
  5  6  1  0
  5 43  1  6
  6 33  1  0
  6  7  1  1
  6  8  1  0
  7 44  1  0
  7 45  1  0
  7 46  1  0
  8  9  1  0
  8 19  1  0
  8 47  1  1
  9 10  1  0
 10 17  1  0
 10 11  1  0
 10 48  1  1
 11 12  1  0
 12 13  1  0
 12 49  1  0
 12 50  1  0
 13 14  1  0
 13 15  1  0
 13 51  1  6
 14 52  1  0
 15 16  1  0
 15 17  1  0
 15 53  1  6
 16 54  1  0
 17 18  1  0
 17 55  1  6
 18 56  1  0
 19 20  1  0
 19 57  1  0
 19 58  1  0
 20 34  1  0
 20 21  1  0
 20 59  1  1
 21 22  1  0
 21 34  1  0
 21 60  1  1
 22 23  1  0
 22 24  1  0
 22 61  1  6
 23 62  1  0
 24 25  1  1
 24 26  1  0
 28 24  1  6
 25 63  1  0
 26 27  1  0
 26 64  1  1
 27 65  1  0
 27 66  1  0
 27 67  1  0
 28 33  1  0
 28 29  1  0
 29 30  1  0
 29 31  1  0
 29 68  1  1
 30 69  1  0
 31 32  1  0
 31 70  1  0
 31 71  1  0
 32 33  1  0
 32 72  1  0
 32 73  1  0
 33 74  1  1
 34 35  1  0
 34 36  1  0
 35 75  1  0
 35 76  1  0
 35 77  1  0
 36 78  1  0
 36 79  1  0
 36 80  1  0
M  END
>  <i_m_ct_stereo_status>  (309) 
1

>  <s_m_source_file>  (309) 
/var/tmp/pbs.5076255.sched01/tmpmzi298dc/117y2go66iu.sdf

>  <i_m_source_file_index>  (309) 
4

>  <i_lp_mmshare_version>  (309) 
48012

>  <i_f3d_flags>  (309) 
0

>  <s_epik_input>  (309) 
W0NIM11PW0NASF0oW0NIMl0xKVtDQEhdKFtDSDNdKVtDQF0yKFtPSF0pW0NASF0oW09IXSlbQ0BIXShDMyhbQ0gzXSlbQ0gzXSlbQ0BIXTNbQ0gyXVtDQEBIXShbQ0BAXShbQ0BASF0xW0NAQF0yNDUpKFtDSDNdKVtDQEhdNVtDSDJdW0NIMl1bQ0BASF00W09IXSlPW0NAQEhdNk9bQ0gyXVtDQEBIXShbT0hdKVtDQEBIXShbT0hdKVtDQEhdNltPSF0=

>  <s_epik_cmdline>  (309) 
J2VwaWtfcHl0aG9uJywgJy1waHQnLCAnMi4wJywgJy1waCcsICc3LjAnLCAnLXRuJywgJzgnLCAnLW1hJywgJzIwMCcsICctaW1hZScsICc8aW5maWxlLm1hZT4nLCAnLW9tYWUnLCAnPG91dGZpbGUubWFlPic=

>  <r_lp_tautomer_probability>  (309) 
1

>  <r_epik_Ionization_Penalty>  (309) 
3.89863e-06

>  <r_epik_Ionization_Penalty_Charging>  (309) 
0

>  <r_epik_Ionization_Penalty_Neutral>  (309) 
3.89863e-06

>  <r_epik_State_Penalty>  (309) 
-0

>  <r_epik_Charging_Adjusted_Penalty>  (309) 
0

>  <i_epik_Tot_Q>  (309) 
0

>  <i_epik_Tot_abs_Q>  (309) 
0

>  <s_epik_Chemistry_Notes>  (309) 
This compound contains an acetal/aminal-like group ( X-CH(R)-Y where X, Y are N, S, or O) that may be acid/base labile, releasing an aldehyde.

>  <s_lp_Force_Field>  (309) 
OPLS3e

>  <r_lp_Energy>  (309) 
183.325

>  <b_lp_Chiralities_Consistent>  (309) 
1

>  <s_lp_Variant>  (309) 
91:0-1

>  <s_i_glide_gridfile>  (309) 
pfpi4k_grid

>  <i_i_glide_lignum>  (309) 
4

>  <i_i_glide_rotatable_bonds>  (309) 
9

>  <r_i_docking_score>  (309) 
-2.82361

>  <r_i_glide_ligand_efficiency>  (309) 
-0.0784337

>  <r_i_glide_ligand_efficiency_sa>  (309) 
-0.258983

>  <r_i_glide_ligand_efficiency_ln>  (309) 
-0.616036

>  <r_i_glide_gscore>  (309) 
-2.82361

>  <r_i_glide_lipo>  (309) 
-0.199556

>  <r_i_glide_hbond>  (309) 
-0.125855

>  <r_i_glide_metal>  (309) 
-0

>  <r_i_glide_rewards>  (309) 
0

>  <r_i_glide_evdw>  (309) 
-23.3159

>  <r_i_glide_ecoul>  (309) 
-9.80314

>  <r_i_glide_erotb>  (309) 
0.156023

>  <r_i_glide_esite>  (309) 
-0.0179625

>  <r_i_glide_emodel>  (309) 
-35.9871

>  <r_i_glide_energy>  (309) 
-33.119

>  <r_i_glide_einternal>  (309) 
5.61069

>  <r_i_glide_intrahb_reward>  (309) 
-0

>  <i_i_glide_confnum>  (309) 
3

>  <i_i_glide_posenum>  (309) 
10

>  <r_i_glide_eff_state_penalty>  (309) 
0

>  <ligand_id>  (309) 
91

>  <original_smiles>  (309) 
COC1CC2C3(C)C(OC4OCC(O)C(O)C4O)CC4C(C(O)C(O)(C1C)C21C(O)CCC31)C4(C)C

>  <smiles>  (309) 
[H]OC1([H])C([H])([H])OC([H])(OC2([H])C([H])([H])C3([H])C([H])(C([H])(O[H])C4(O[H])C([H])(C([H])([H])[H])C([H])(OC([H])([H])[H])C([H])([H])C5([H])C2(C([H])([H])[H])C2([H])C([H])([H])C([H])([H])C([H])(O[H])C254)C3(C([H])([H])[H])C([H])([H])[H])C([H])(O[H])C1([H])O[H]

$$$$
91:0:1
     RDKit          3D

 80 85  0  0  1  0  0  0  0  0999 V2000
   -1.8430   -0.1468    5.4545 C   0  0  0  0  0  0  0  0  0  0  0  0
   -0.4456    0.0711    5.4952 O   0  0  0  0  0  0  0  0  0  0  0  0
    0.3114   -0.7539    4.6129 C   0  0  2  0  0  0  0  0  0  0  0  0
    0.3624   -2.2144    5.1958 C   0  0  0  0  0  0  0  0  0  0  0  0
    1.5668   -2.8609    4.5627 C   0  0  2  0  0  0  0  0  0  0  0  0
    2.1837   -4.2915    4.5631 C   0  0  1  0  0  0  0  0  0  0  0  0
    1.4912   -5.1344    5.6454 C   0  0  0  0  0  0  0  0  0  0  0  0
    2.3538   -5.1381    3.2542 C   0  0  1  0  0  0  0  0  0  0  0  0
    1.1843   -5.8866    2.9518 O   0  0  0  0  0  0  0  0  0  0  0  0
    1.1811   -7.2380    3.3213 C   0  0  2  0  0  0  0  0  0  0  0  0
    2.1984   -7.9478    2.6711 O   0  0  0  0  0  0  0  0  0  0  0  0
    2.3470   -9.2737    3.1694 C   0  0  0  0  0  0  0  0  0  0  0  0
    1.0682  -10.0430    2.7934 C   0  0  1  0  0  0  0  0  0  0  0  0
    1.0964  -11.3754    3.2904 O   0  0  0  0  0  0  0  0  0  0  0  0
   -0.1879   -9.3207    3.3302 C   0  0  1  0  0  0  0  0  0  0  0  0
   -0.1832   -9.4078    4.7458 O   0  0  0  0  0  0  0  0  0  0  0  0
   -0.1719   -7.8471    2.8964 C   0  0  1  0  0  0  0  0  0  0  0  0
   -1.2587   -7.2327    3.5516 O   0  0  0  0  0  0  0  0  0  0  0  0
    2.6450   -4.4024    1.9132 C   0  0  0  0  0  0  0  0  0  0  0  0
    3.9727   -3.6576    1.7939 C   0  0  2  0  0  0  0  0  0  0  0  0
    4.1266   -2.1403    1.9233 C   0  0  2  0  0  0  0  0  0  0  0  0
    3.0340   -1.1556    2.3579 C   0  0  1  0  0  0  0  0  0  0  0  0
    1.7825   -1.3337    1.7476 O   0  0  0  0  0  0  0  0  0  0  0  0
    2.9282   -0.8915    3.9282 C   0  0  1  0  0  0  0  0  0  0  0  0
    4.1186   -0.1284    4.1483 O   0  0  0  0  0  0  0  0  0  0  0  0
    1.6928    0.0005    4.3738 C   0  0  1  0  0  0  0  0  0  0  0  0
    1.5134    1.2558    3.5086 C   0  0  0  0  0  0  0  0  0  0  0  0
    2.8459   -2.0915    4.9196 C   0  0  1  0  0  0  0  0  0  0  0  0
    3.5133   -1.6719    6.2736 C   0  0  1  0  0  0  0  0  0  0  0  0
    2.8550   -2.1531    7.4442 O   0  0  0  0  0  0  0  0  0  0  0  0
    4.9671   -2.2935    6.1685 C   0  0  0  0  0  0  0  0  0  0  0  0
    4.9168   -3.4277    5.0792 C   0  0  0  0  0  0  0  0  0  0  0  0
    3.4318   -3.4663    4.9273 C   0  0  2  0  0  0  0  0  0  0  0  0
    4.3101   -2.8058    0.5605 C   0  0  0  0  0  0  0  0  0  0  0  0
    5.7134   -2.8929   -0.0188 C   0  0  0  0  0  0  0  0  0  0  0  0
    3.3339   -2.6502   -0.5910 C   0  0  0  0  0  0  0  0  0  0  0  0
   -2.3385    0.6118    6.0640 H   0  0  0  0  0  0  0  0  0  0  0  0
   -2.1229   -1.1256    5.8502 H   0  0  0  0  0  0  0  0  0  0  0  0
   -2.2145   -0.0527    4.4346 H   0  0  0  0  0  0  0  0  0  0  0  0
   -0.1687   -0.8131    3.6460 H   0  0  0  0  0  0  0  0  0  0  0  0
    0.4367   -2.1755    6.2847 H   0  0  0  0  0  0  0  0  0  0  0  0
   -0.5570   -2.7526    4.9697 H   0  0  0  0  0  0  0  0  0  0  0  0
    1.3618   -2.7767    3.5040 H   0  0  0  0  0  0  0  0  0  0  0  0
    2.0461   -6.0265    5.9211 H   0  0  0  0  0  0  0  0  0  0  0  0
    0.4982   -5.4516    5.3370 H   0  0  0  0  0  0  0  0  0  0  0  0
    1.3137   -4.5543    6.5506 H   0  0  0  0  0  0  0  0  0  0  0  0
    3.1896   -5.8227    3.3936 H   0  0  0  0  0  0  0  0  0  0  0  0
    1.3438   -7.3205    4.3931 H   0  0  0  0  0  0  0  0  0  0  0  0
    3.2290   -9.7314    2.7180 H   0  0  0  0  0  0  0  0  0  0  0  0
    2.5158   -9.2656    4.2471 H   0  0  0  0  0  0  0  0  0  0  0  0
    1.0095  -10.0704    1.7105 H   0  0  0  0  0  0  0  0  0  0  0  0
    1.1714  -11.3280    4.2216 H   0  0  0  0  0  0  0  0  0  0  0  0
   -1.0845   -9.8143    2.9598 H   0  0  0  0  0  0  0  0  0  0  0  0
   -0.8218  -10.0872    4.9777 H   0  0  0  0  0  0  0  0  0  0  0  0
   -0.2842   -7.7418    1.8247 H   0  0  0  0  0  0  0  0  0  0  0  0
   -1.2247   -7.5449    4.4376 H   0  0  0  0  0  0  0  0  0  0  0  0
    2.6729   -5.1534    1.1257 H   0  0  0  0  0  0  0  0  0  0  0  0
    1.8120   -3.7636    1.6551 H   0  0  0  0  0  0  0  0  0  0  0  0
    4.8126   -4.2526    2.1554 H   0  0  0  0  0  0  0  0  0  0  0  0
    5.0866   -1.8180    2.3344 H   0  0  0  0  0  0  0  0  0  0  0  0
    3.3447   -0.2129    1.9258 H   0  0  0  0  0  0  0  0  0  0  0  0
    1.7959   -1.0970    0.8116 H   0  0  0  0  0  0  0  0  0  0  0  0
    4.1144    0.6140    3.5842 H   0  0  0  0  0  0  0  0  0  0  0  0
    1.9574    0.3864    5.3605 H   0  0  0  0  0  0  0  0  0  0  0  0
    1.1111    1.0191    2.5290 H   0  0  0  0  0  0  0  0  0  0  0  0
    2.4536    1.7843    3.3585 H   0  0  0  0  0  0  0  0  0  0  0  0
    0.8249    1.9469    3.9831 H   0  0  0  0  0  0  0  0  0  0  0  0
    3.5686   -0.5909    6.4552 H   0  0  0  0  0  0  0  0  0  0  0  0
    1.9898   -1.8057    7.4636 H   0  0  0  0  0  0  0  0  0  0  0  0
    5.6818   -1.5267    5.8627 H   0  0  0  0  0  0  0  0  0  0  0  0
    5.2949   -2.6892    7.1358 H   0  0  0  0  0  0  0  0  0  0  0  0
    5.3844   -3.0722    4.1573 H   0  0  0  0  0  0  0  0  0  0  0  0
    5.3715   -4.3735    5.3713 H   0  0  0  0  0  0  0  0  0  0  0  0
    3.3271   -3.8956    5.9268 H   0  0  0  0  0  0  0  0  0  0  0  0
    5.9503   -1.9728   -0.5655 H   0  0  0  0  0  0  0  0  0  0  0  0
    5.7839   -3.7379   -0.7148 H   0  0  0  0  0  0  0  0  0  0  0  0
    6.4503   -3.0345    0.7755 H   0  0  0  0  0  0  0  0  0  0  0  0
    3.4682   -1.6750   -1.0725 H   0  0  0  0  0  0  0  0  0  0  0  0
    2.2887   -2.7440   -0.2833 H   0  0  0  0  0  0  0  0  0  0  0  0
    3.5168   -3.4184   -1.3512 H   0  0  0  0  0  0  0  0  0  0  0  0
  1  2  1  0
  1 37  1  0
  1 38  1  0
  1 39  1  0
  2  3  1  0
  3 26  1  0
  3  4  1  0
  3 40  1  6
  4  5  1  0
  4 41  1  0
  4 42  1  0
  5 28  1  0
  5  6  1  0
  5 43  1  6
  6 33  1  0
  6  7  1  1
  6  8  1  0
  7 44  1  0
  7 45  1  0
  7 46  1  0
  8  9  1  0
  8 19  1  0
  8 47  1  1
  9 10  1  0
 10 17  1  0
 10 11  1  0
 10 48  1  1
 11 12  1  0
 12 13  1  0
 12 49  1  0
 12 50  1  0
 13 14  1  0
 13 15  1  0
 13 51  1  6
 14 52  1  0
 15 16  1  0
 15 17  1  0
 15 53  1  6
 16 54  1  0
 17 18  1  0
 17 55  1  6
 18 56  1  0
 19 20  1  0
 19 57  1  0
 19 58  1  0
 20 34  1  0
 20 21  1  0
 20 59  1  1
 21 22  1  0
 21 34  1  0
 21 60  1  1
 22 23  1  0
 22 24  1  0
 22 61  1  6
 23 62  1  0
 24 25  1  1
 24 26  1  0
 28 24  1  6
 25 63  1  0
 26 27  1  0
 26 64  1  1
 27 65  1  0
 27 66  1  0
 27 67  1  0
 28 33  1  0
 28 29  1  0
 29 30  1  0
 29 31  1  0
 29 68  1  1
 30 69  1  0
 31 32  1  0
 31 70  1  0
 31 71  1  0
 32 33  1  0
 32 72  1  0
 32 73  1  0
 33 74  1  1
 34 35  1  0
 34 36  1  0
 35 75  1  0
 35 76  1  0
 35 77  1  0
 36 78  1  0
 36 79  1  0
 36 80  1  0
M  END
>  <i_m_ct_stereo_status>  (310) 
1

>  <s_m_source_file>  (310) 
/var/tmp/pbs.5076255.sched01/tmpmzi298dc/117y2go66iu.sdf

>  <i_m_source_file_index>  (310) 
4

>  <i_lp_mmshare_version>  (310) 
48012

>  <i_f3d_flags>  (310) 
0

>  <s_epik_input>  (310) 
W0NIM11PW0NASF0oW0NIMl0xKVtDQEhdKFtDSDNdKVtDQF0yKFtPSF0pW0NASF0oW09IXSlbQ0BIXShDMyhbQ0gzXSlbQ0gzXSlbQ0BIXTNbQ0gyXVtDQEBIXShbQ0BAXShbQ0BASF0xW0NAQF0yNDUpKFtDSDNdKVtDQEhdNVtDSDJdW0NIMl1bQ0BASF00W09IXSlPW0NAQEhdNk9bQ0gyXVtDQEBIXShbT0hdKVtDQEBIXShbT0hdKVtDQEhdNltPSF0=

>  <s_epik_cmdline>  (310) 
J2VwaWtfcHl0aG9uJywgJy1waHQnLCAnMi4wJywgJy1waCcsICc3LjAnLCAnLXRuJywgJzgnLCAnLW1hJywgJzIwMCcsICctaW1hZScsICc8aW5maWxlLm1hZT4nLCAnLW9tYWUnLCAnPG91dGZpbGUubWFlPic=

>  <r_lp_tautomer_probability>  (310) 
1

>  <r_epik_Ionization_Penalty>  (310) 
3.89863e-06

>  <r_epik_Ionization_Penalty_Charging>  (310) 
0

>  <r_epik_Ionization_Penalty_Neutral>  (310) 
3.89863e-06

>  <r_epik_State_Penalty>  (310) 
-0

>  <r_epik_Charging_Adjusted_Penalty>  (310) 
0

>  <i_epik_Tot_Q>  (310) 
0

>  <i_epik_Tot_abs_Q>  (310) 
0

>  <s_epik_Chemistry_Notes>  (310) 
This compound contains an acetal/aminal-like group ( X-CH(R)-Y where X, Y are N, S, or O) that may be acid/base labile, releasing an aldehyde.

>  <s_lp_Force_Field>  (310) 
OPLS3e

>  <r_lp_Energy>  (310) 
183.325

>  <b_lp_Chiralities_Consistent>  (310) 
1

>  <s_lp_Variant>  (310) 
91:0-1

>  <s_i_glide_gridfile>  (310) 
pfpi4k_grid

>  <i_i_glide_lignum>  (310) 
4

>  <i_i_glide_rotatable_bonds>  (310) 
9

>  <r_i_docking_score>  (310) 
-2.64704

>  <r_i_glide_ligand_efficiency>  (310) 
-0.073529

>  <r_i_glide_ligand_efficiency_sa>  (310) 
-0.242787

>  <r_i_glide_ligand_efficiency_ln>  (310) 
-0.577513

>  <r_i_glide_gscore>  (310) 
-2.64704

>  <r_i_glide_lipo>  (310) 
-0.200199

>  <r_i_glide_hbond>  (310) 
-0.132639

>  <r_i_glide_metal>  (310) 
-0

>  <r_i_glide_rewards>  (310) 
0

>  <r_i_glide_evdw>  (310) 
-24.0095

>  <r_i_glide_ecoul>  (310) 
-8.3447

>  <r_i_glide_erotb>  (310) 
0.156023

>  <r_i_glide_esite>  (310) 
-0.0180509

>  <r_i_glide_emodel>  (310) 
-35.6149

>  <r_i_glide_energy>  (310) 
-32.3542

>  <r_i_glide_einternal>  (310) 
3.86151

>  <r_i_glide_intrahb_reward>  (310) 
-0

>  <i_i_glide_confnum>  (310) 
3

>  <i_i_glide_posenum>  (310) 
1

>  <r_i_glide_eff_state_penalty>  (310) 
0

>  <ligand_id>  (310) 
91

>  <original_smiles>  (310) 
COC1CC2C3(C)C(OC4OCC(O)C(O)C4O)CC4C(C(O)C(O)(C1C)C21C(O)CCC31)C4(C)C

>  <smiles>  (310) 
[H]OC1([H])C([H])([H])OC([H])(OC2([H])C([H])([H])C3([H])C([H])(C([H])(O[H])C4(O[H])C([H])(C([H])([H])[H])C([H])(OC([H])([H])[H])C([H])([H])C5([H])C2(C([H])([H])[H])C2([H])C([H])([H])C([H])([H])C([H])(O[H])C254)C3(C([H])([H])[H])C([H])([H])[H])C([H])(O[H])C1([H])O[H]

$$$$
91:0:2
     RDKit          3D

 80 85  0  0  1  0  0  0  0  0999 V2000
    0.5664  -10.9689    3.0908 C   0  0  0  0  0  0  0  0  0  0  0  0
    1.4234  -10.5478    4.1279 O   0  0  0  0  0  0  0  0  0  0  0  0
    1.5991   -9.1385    4.2109 C   0  0  2  0  0  0  0  0  0  0  0  0
    2.5105   -8.6729    3.0135 C   0  0  0  0  0  0  0  0  0  0  0  0
    3.0800   -7.3545    3.4664 C   0  0  2  0  0  0  0  0  0  0  0  0
    3.9452   -6.2352    2.8004 C   0  0  1  0  0  0  0  0  0  0  0  0
    4.4795   -6.7157    1.4361 C   0  0  0  0  0  0  0  0  0  0  0  0
    3.4685   -4.7542    2.6544 C   0  0  1  0  0  0  0  0  0  0  0  0
    2.7527   -4.5249    1.4477 O   0  0  0  0  0  0  0  0  0  0  0  0
    3.4391   -3.9162    0.3895 C   0  0  2  0  0  0  0  0  0  0  0  0
    4.2263   -2.8603    0.8737 O   0  0  0  0  0  0  0  0  0  0  0  0
    5.0074   -2.2362   -0.1328 C   0  0  0  0  0  0  0  0  0  0  0  0
    4.0543   -1.5346   -1.1131 C   0  0  1  0  0  0  0  0  0  0  0  0
    4.7946   -0.8433   -2.0979 O   0  0  0  0  0  0  0  0  0  0  0  0
    3.0686   -2.5607   -1.7144 C   0  0  1  0  0  0  0  0  0  0  0  0
    3.8084   -3.4480   -2.5584 O   0  0  0  0  0  0  0  0  0  0  0  0
    2.3968   -3.3341   -0.5616 C   0  0  1  0  0  0  0  0  0  0  0  0
    1.5158   -4.3014   -1.1245 O   0  0  0  0  0  0  0  0  0  0  0  0
    2.4981   -4.1585    3.6991 C   0  0  0  0  0  0  0  0  0  0  0  0
    3.0391   -3.9514    5.1045 C   0  0  2  0  0  0  0  0  0  0  0  0
    2.7419   -4.8849    6.2719 C   0  0  2  0  0  0  0  0  0  0  0  0
    1.9899   -6.2241    6.1813 C   0  0  1  0  0  0  0  0  0  0  0  0
    0.8091   -6.1995    5.4177 O   0  0  0  0  0  0  0  0  0  0  0  0
    2.8985   -7.4994    5.9252 C   0  0  1  0  0  0  0  0  0  0  0  0
    3.5722   -7.6048    7.1829 O   0  0  0  0  0  0  0  0  0  0  0  0
    2.0928   -8.8509    5.6856 C   0  0  1  0  0  0  0  0  0  0  0  0
    0.9748   -9.0727    6.7191 C   0  0  0  0  0  0  0  0  0  0  0  0
    3.9222   -7.5234    4.7280 C   0  0  1  0  0  0  0  0  0  0  0  0
    5.1353   -8.4332    5.1200 C   0  0  1  0  0  0  0  0  0  0  0  0
    5.6591   -9.2073    4.0500 O   0  0  0  0  0  0  0  0  0  0  0  0
    6.2179   -7.3812    5.6057 C   0  0  0  0  0  0  0  0  0  0  0  0
    5.8167   -5.9776    5.0161 C   0  0  0  0  0  0  0  0  0  0  0  0
    4.7640   -6.4805    4.0817 C   0  0  2  0  0  0  0  0  0  0  0  0
    2.1513   -3.4750    6.2412 C   0  0  0  0  0  0  0  0  0  0  0  0
    2.7188   -2.4404    7.2028 C   0  0  0  0  0  0  0  0  0  0  0  0
    0.6814   -3.1688    6.0367 C   0  0  0  0  0  0  0  0  0  0  0  0
    0.4205  -12.0498    3.1673 H   0  0  0  0  0  0  0  0  0  0  0  0
    0.9754  -10.7430    2.1046 H   0  0  0  0  0  0  0  0  0  0  0  0
   -0.4064  -10.4872    3.1791 H   0  0  0  0  0  0  0  0  0  0  0  0
    0.6428   -8.6345    4.1009 H   0  0  0  0  0  0  0  0  0  0  0  0
    3.2831   -9.4253    2.8142 H   0  0  0  0  0  0  0  0  0  0  0  0
    1.9272   -8.5842    2.0904 H   0  0  0  0  0  0  0  0  0  0  0  0
    2.2221   -6.7451    3.6644 H   0  0  0  0  0  0  0  0  0  0  0  0
    5.2755   -6.0809    1.0458 H   0  0  0  0  0  0  0  0  0  0  0  0
    3.6795   -6.7672    0.6977 H   0  0  0  0  0  0  0  0  0  0  0  0
    4.8791   -7.7301    1.4878 H   0  0  0  0  0  0  0  0  0  0  0  0
    4.3643   -4.1369    2.7275 H   0  0  0  0  0  0  0  0  0  0  0  0
    4.0767   -4.6327   -0.1281 H   0  0  0  0  0  0  0  0  0  0  0  0
    5.6622   -1.5138    0.3597 H   0  0  0  0  0  0  0  0  0  0  0  0
    5.6550   -2.9722   -0.6259 H   0  0  0  0  0  0  0  0  0  0  0  0
    3.4889   -0.8011   -0.5474 H   0  0  0  0  0  0  0  0  0  0  0  0
    4.1813   -0.4008   -2.6710 H   0  0  0  0  0  0  0  0  0  0  0  0
    2.3119   -2.0555   -2.3092 H   0  0  0  0  0  0  0  0  0  0  0  0
    3.2672   -4.1769   -2.7999 H   0  0  0  0  0  0  0  0  0  0  0  0
    1.8240   -2.6570    0.0699 H   0  0  0  0  0  0  0  0  0  0  0  0
    2.0071   -4.9519   -1.5973 H   0  0  0  0  0  0  0  0  0  0  0  0
    2.2490   -3.1591    3.3497 H   0  0  0  0  0  0  0  0  0  0  0  0
    1.5451   -4.6944    3.6856 H   0  0  0  0  0  0  0  0  0  0  0  0
    4.0346   -3.5138    5.0904 H   0  0  0  0  0  0  0  0  0  0  0  0
    3.5455   -4.9604    7.0082 H   0  0  0  0  0  0  0  0  0  0  0  0
    1.6006   -6.3547    7.1823 H   0  0  0  0  0  0  0  0  0  0  0  0
    0.3766   -7.0346    5.5178 H   0  0  0  0  0  0  0  0  0  0  0  0
    4.0638   -8.4137    7.2010 H   0  0  0  0  0  0  0  0  0  0  0  0
    2.8003   -9.6571    5.8939 H   0  0  0  0  0  0  0  0  0  0  0  0
    0.1120   -8.4329    6.5477 H   0  0  0  0  0  0  0  0  0  0  0  0
    1.3256   -8.8925    7.7361 H   0  0  0  0  0  0  0  0  0  0  0  0
    0.6232  -10.1042    6.6797 H   0  0  0  0  0  0  0  0  0  0  0  0
    4.9212   -9.1741    5.8933 H   0  0  0  0  0  0  0  0  0  0  0  0
    4.9742   -9.7834    3.7361 H   0  0  0  0  0  0  0  0  0  0  0  0
    6.2242   -7.3250    6.6938 H   0  0  0  0  0  0  0  0  0  0  0  0
    7.2133   -7.6760    5.2822 H   0  0  0  0  0  0  0  0  0  0  0  0
    5.3755   -5.3627    5.8008 H   0  0  0  0  0  0  0  0  0  0  0  0
    6.6310   -5.4302    4.5436 H   0  0  0  0  0  0  0  0  0  0  0  0
    5.4831   -6.9574    3.4328 H   0  0  0  0  0  0  0  0  0  0  0  0
    2.2085   -2.5044    8.1708 H   0  0  0  0  0  0  0  0  0  0  0  0
    2.5741   -1.4306    6.8065 H   0  0  0  0  0  0  0  0  0  0  0  0
    3.7858   -2.6009    7.3585 H   0  0  0  0  0  0  0  0  0  0  0  0
    0.1323   -3.3567    6.9619 H   0  0  0  0  0  0  0  0  0  0  0  0
    0.2383   -3.7632    5.2350 H   0  0  0  0  0  0  0  0  0  0  0  0
    0.5499   -2.1125    5.7738 H   0  0  0  0  0  0  0  0  0  0  0  0
  1  2  1  0
  1 37  1  0
  1 38  1  0
  1 39  1  0
  2  3  1  0
  3 26  1  0
  3  4  1  0
  3 40  1  6
  4  5  1  0
  4 41  1  0
  4 42  1  0
  5 28  1  0
  5  6  1  0
  5 43  1  1
  6 33  1  0
  6  7  1  6
  6  8  1  0
  7 44  1  0
  7 45  1  0
  7 46  1  0
  8  9  1  0
  8 19  1  0
  8 47  1  6
  9 10  1  0
 10 17  1  0
 10 11  1  0
 10 48  1  6
 11 12  1  0
 12 13  1  0
 12 49  1  0
 12 50  1  0
 13 14  1  0
 13 15  1  0
 13 51  1  1
 14 52  1  0
 15 16  1  0
 15 17  1  0
 15 53  1  6
 16 54  1  0
 17 18  1  0
 17 55  1  1
 18 56  1  0
 19 20  1  0
 19 57  1  0
 19 58  1  0
 20 34  1  0
 20 21  1  0
 20 59  1  6
 21 22  1  0
 21 34  1  0
 21 60  1  1
 22 23  1  0
 22 24  1  0
 22 61  1  1
 23 62  1  0
 24 25  1  1
 24 26  1  0
 28 24  1  1
 25 63  1  0
 26 27  1  0
 26 64  1  1
 27 65  1  0
 27 66  1  0
 27 67  1  0
 28 33  1  0
 28 29  1  0
 29 30  1  0
 29 31  1  0
 29 68  1  1
 30 69  1  0
 31 32  1  0
 31 70  1  0
 31 71  1  0
 32 33  1  0
 32 72  1  0
 32 73  1  0
 33 74  1  6
 34 35  1  0
 34 36  1  0
 35 75  1  0
 35 76  1  0
 35 77  1  0
 36 78  1  0
 36 79  1  0
 36 80  1  0
M  END
>  <i_m_ct_stereo_status>  (311) 
1

>  <s_m_source_file>  (311) 
/var/tmp/pbs.5076255.sched01/tmpmzi298dc/117y2go66iu.sdf

>  <i_m_source_file_index>  (311) 
4

>  <i_lp_mmshare_version>  (311) 
48012

>  <i_f3d_flags>  (311) 
0

>  <s_epik_input>  (311) 
W0NIM11PW0NASF0oW0NIMl0xKVtDQEhdKFtDSDNdKVtDQF0yKFtPSF0pW0NASF0oW09IXSlbQ0BIXShDMyhbQ0gzXSlbQ0gzXSlbQ0BIXTNbQ0gyXVtDQEBIXShbQ0BAXShbQ0BASF0xW0NAQF0yNDUpKFtDSDNdKVtDQEhdNVtDSDJdW0NIMl1bQ0BASF00W09IXSlPW0NAQEhdNk9bQ0gyXVtDQEBIXShbT0hdKVtDQEBIXShbT0hdKVtDQEhdNltPSF0=

>  <s_epik_cmdline>  (311) 
J2VwaWtfcHl0aG9uJywgJy1waHQnLCAnMi4wJywgJy1waCcsICc3LjAnLCAnLXRuJywgJzgnLCAnLW1hJywgJzIwMCcsICctaW1hZScsICc8aW5maWxlLm1hZT4nLCAnLW9tYWUnLCAnPG91dGZpbGUubWFlPic=

>  <r_lp_tautomer_probability>  (311) 
1

>  <r_epik_Ionization_Penalty>  (311) 
3.89863e-06

>  <r_epik_Ionization_Penalty_Charging>  (311) 
0

>  <r_epik_Ionization_Penalty_Neutral>  (311) 
3.89863e-06

>  <r_epik_State_Penalty>  (311) 
-0

>  <r_epik_Charging_Adjusted_Penalty>  (311) 
0

>  <i_epik_Tot_Q>  (311) 
0

>  <i_epik_Tot_abs_Q>  (311) 
0

>  <s_epik_Chemistry_Notes>  (311) 
This compound contains an acetal/aminal-like group ( X-CH(R)-Y where X, Y are N, S, or O) that may be acid/base labile, releasing an aldehyde.

>  <s_lp_Force_Field>  (311) 
OPLS3e

>  <r_lp_Energy>  (311) 
183.325

>  <b_lp_Chiralities_Consistent>  (311) 
1

>  <s_lp_Variant>  (311) 
91:0-1

>  <s_i_glide_gridfile>  (311) 
pfpi4k_grid

>  <i_i_glide_lignum>  (311) 
4

>  <i_i_glide_rotatable_bonds>  (311) 
9

>  <r_i_docking_score>  (311) 
-2.45742

>  <r_i_glide_ligand_efficiency>  (311) 
-0.0682616

>  <r_i_glide_ligand_efficiency_sa>  (311) 
-0.225395

>  <r_i_glide_ligand_efficiency_ln>  (311) 
-0.536142

>  <r_i_glide_gscore>  (311) 
-2.45742

>  <r_i_glide_lipo>  (311) 
-0.144815

>  <r_i_glide_hbond>  (311) 
0

>  <r_i_glide_metal>  (311) 
-0

>  <r_i_glide_rewards>  (311) 
0

>  <r_i_glide_evdw>  (311) 
-19.931

>  <r_i_glide_ecoul>  (311) 
-9.777

>  <r_i_glide_erotb>  (311) 
0.156023

>  <r_i_glide_esite>  (311) 
-0.00552243

>  <r_i_glide_emodel>  (311) 
-32.634

>  <r_i_glide_energy>  (311) 
-29.708

>  <r_i_glide_einternal>  (311) 
5.00475

>  <r_i_glide_intrahb_reward>  (311) 
-0

>  <i_i_glide_confnum>  (311) 
2

>  <i_i_glide_posenum>  (311) 
29

>  <r_i_glide_eff_state_penalty>  (311) 
0

>  <ligand_id>  (311) 
91

>  <original_smiles>  (311) 
COC1CC2C3(C)C(OC4OCC(O)C(O)C4O)CC4C(C(O)C(O)(C1C)C21C(O)CCC31)C4(C)C

>  <smiles>  (311) 
[H]OC1([H])C([H])([H])OC([H])(OC2([H])C([H])([H])C3([H])C([H])(C([H])(O[H])C4(O[H])C([H])(C([H])([H])[H])C([H])(OC([H])([H])[H])C([H])([H])C5([H])C2(C([H])([H])[H])C2([H])C([H])([H])C([H])([H])C([H])(O[H])C254)C3(C([H])([H])[H])C([H])([H])[H])C([H])(O[H])C1([H])O[H]

$$$$
92:0:0
     RDKit          3D

 69 74  0  0  1  0  0  0  0  0999 V2000
    7.1746   -5.4140    2.9178 C   0  0  0  0  0  0  0  0  0  0  0  0
    5.7480   -5.2457    2.3775 C   0  0  2  0  0  0  0  0  0  0  0  0
    5.6158   -5.9139    0.9234 C   0  0  0  0  0  0  0  0  0  0  0  0
    4.6372   -5.3345   -0.2002 C   0  0  2  0  0  0  0  0  0  0  0  0
    5.0880   -4.2711   -1.2578 C   0  0  1  0  0  0  0  0  0  0  0  0
    4.6995   -3.9428   -2.7158 C   0  0  0  0  0  0  0  0  0  0  0  0
    4.9200   -2.4551   -3.0213 C   0  0  0  0  0  0  0  0  0  0  0  0
    5.2068   -1.4810   -1.8402 C   0  0  1  0  0  0  0  0  0  0  0  0
    4.7934   -0.2504   -2.3605 O   0  0  0  0  0  0  0  0  0  0  0  0
    4.4829   -1.7815   -0.4764 C   0  0  2  0  0  0  0  0  0  0  0  0
    3.0367   -1.5437   -0.8122 C   0  0  0  0  0  0  0  0  0  0  0  0
    4.7915   -0.8522    0.8058 C   0  0  1  0  0  0  0  0  0  0  0  0
    3.6494   -0.4303    1.7953 C   0  0  0  0  0  0  0  0  0  0  0  0
    3.7822   -0.7786    3.2939 C   0  0  0  0  0  0  0  0  0  0  0  0
    3.9914   -2.2602    3.7362 C   0  0  1  0  0  0  0  0  0  0  0  0
    2.8055   -3.2434    3.7010 C   0  0  1  0  0  0  0  0  0  0  0  0
    1.7744   -2.6993    4.5113 O   0  0  0  0  0  0  0  0  0  0  0  0
    2.1897   -3.5105    2.3209 C   0  0  0  0  0  0  0  0  0  0  0  0
    2.8672   -4.6174    1.5057 C   0  0  0  0  0  0  0  0  0  0  0  0
    3.6497   -4.2692    0.1837 C   0  0  2  0  0  0  0  0  0  0  0  0
    2.3614   -4.2934   -0.7288 C   0  0  0  0  0  0  0  0  0  0  0  0
    4.9455   -3.2154   -0.1677 C   0  0  1  0  0  0  0  0  0  0  0  0
    6.6094   -3.0683    0.1740 C   0  0  1  0  0  0  0  0  0  0  0  0
    7.7994   -3.3353   -0.8425 C   0  0  0  0  0  0  0  0  0  0  0  0
    7.0823   -1.7493    0.7318 C   0  0  0  0  0  0  0  0  0  0  0  0
    6.0672   -1.1848    1.6232 C   0  0  2  0  0  0  0  0  0  0  0  0
    6.1238   -1.8323    2.8768 O   0  0  0  0  0  0  0  0  0  0  0  0
    5.3392   -2.8882    3.3094 C   0  0  2  0  0  0  0  0  0  0  0  0
    5.2233   -3.8901    2.3619 O   0  0  0  0  0  0  0  0  0  0  0  0
    7.5547   -6.4255    2.8145 H   0  0  0  0  0  0  0  0  0  0  0  0
    7.1863   -5.1766    3.9748 H   0  0  0  0  0  0  0  0  0  0  0  0
    7.8890   -4.7715    2.4184 H   0  0  0  0  0  0  0  0  0  0  0  0
    5.1431   -5.8087    3.0920 H   0  0  0  0  0  0  0  0  0  0  0  0
    6.6217   -6.0420    0.5030 H   0  0  0  0  0  0  0  0  0  0  0  0
    5.3165   -6.9452    1.1266 H   0  0  0  0  0  0  0  0  0  0  0  0
    4.1712   -6.1691   -0.7242 H   0  0  0  0  0  0  0  0  0  0  0  0
    6.0616   -4.6563   -1.4209 H   0  0  0  0  0  0  0  0  0  0  0  0
    5.3452   -4.5002   -3.4016 H   0  0  0  0  0  0  0  0  0  0  0  0
    3.7050   -4.2101   -3.0683 H   0  0  0  0  0  0  0  0  0  0  0  0
    5.8046   -2.3905   -3.6335 H   0  0  0  0  0  0  0  0  0  0  0  0
    4.0910   -2.0897   -3.6355 H   0  0  0  0  0  0  0  0  0  0  0  0
    6.2920   -1.3917   -1.7419 H   0  0  0  0  0  0  0  0  0  0  0  0
    5.0046    0.4087   -1.7311 H   0  0  0  0  0  0  0  0  0  0  0  0
    2.3976   -2.0190   -0.0826 H   0  0  0  0  0  0  0  0  0  0  0  0
    2.7383   -1.7278   -1.8497 H   0  0  0  0  0  0  0  0  0  0  0  0
    2.8800   -0.4987   -0.6575 H   0  0  0  0  0  0  0  0  0  0  0  0
    5.0479    0.1036    0.3365 H   0  0  0  0  0  0  0  0  0  0  0  0
    3.6380    0.6586    1.7752 H   0  0  0  0  0  0  0  0  0  0  0  0
    2.6396   -0.6539    1.4773 H   0  0  0  0  0  0  0  0  0  0  0  0
    4.5630   -0.1585    3.7382 H   0  0  0  0  0  0  0  0  0  0  0  0
    2.8777   -0.4133    3.7785 H   0  0  0  0  0  0  0  0  0  0  0  0
    4.1345   -2.1163    4.8099 H   0  0  0  0  0  0  0  0  0  0  0  0
    3.0938   -4.1855    4.1757 H   0  0  0  0  0  0  0  0  0  0  0  0
    1.0310   -3.2820    4.4970 H   0  0  0  0  0  0  0  0  0  0  0  0
    1.1823   -3.8766    2.4984 H   0  0  0  0  0  0  0  0  0  0  0  0
    2.0364   -2.6041    1.7672 H   0  0  0  0  0  0  0  0  0  0  0  0
    3.3734   -5.2869    2.1711 H   0  0  0  0  0  0  0  0  0  0  0  0
    2.0777   -5.3331    1.2618 H   0  0  0  0  0  0  0  0  0  0  0  0
    1.4809   -3.8659   -0.2691 H   0  0  0  0  0  0  0  0  0  0  0  0
    2.0190   -5.2902   -0.9679 H   0  0  0  0  0  0  0  0  0  0  0  0
    2.4209   -3.7522   -1.6559 H   0  0  0  0  0  0  0  0  0  0  0  0
    6.9148   -3.7697    0.9090 H   0  0  0  0  0  0  0  0  0  0  0  0
    7.6032   -3.0553   -1.8773 H   0  0  0  0  0  0  0  0  0  0  0  0
    8.1202   -4.3676   -0.7796 H   0  0  0  0  0  0  0  0  0  0  0  0
    8.7358   -2.8452   -0.5565 H   0  0  0  0  0  0  0  0  0  0  0  0
    7.9932   -1.8926    1.2345 H   0  0  0  0  0  0  0  0  0  0  0  0
    7.3371   -1.0118   -0.0245 H   0  0  0  0  0  0  0  0  0  0  0  0
    6.4708   -0.2370    1.9343 H   0  0  0  0  0  0  0  0  0  0  0  0
    5.8146   -3.3123    4.1820 H   0  0  0  0  0  0  0  0  0  0  0  0
  1  2  1  0
  1 30  1  0
  1 31  1  0
  1 32  1  0
  2 29  1  0
  2  3  1  0
  2 33  1  1
  3  4  1  0
  3 34  1  0
  3 35  1  0
  4 20  1  0
  4  5  1  0
  4 36  1  6
  5 22  1  0
  5  6  1  0
  5 37  1  6
  6  7  1  0
  6 38  1  0
  6 39  1  0
  7  8  1  0
  7 40  1  0
  7 41  1  0
  8  9  1  0
  8 10  1  0
  8 42  1  1
  9 43  1  0
 10 22  1  0
 10 11  1  6
 10 12  1  0
 11 44  1  0
 11 45  1  0
 11 46  1  0
 12 26  1  0
 12 13  1  0
 12 47  1  6
 13 14  1  0
 13 48  1  0
 13 49  1  0
 14 15  1  0
 14 50  1  0
 14 51  1  0
 15 28  1  0
 15 16  1  0
 15 52  1  1
 16 17  1  0
 16 18  1  0
 16 53  1  1
 17 54  1  0
 18 19  1  0
 18 55  1  0
 18 56  1  0
 19 20  1  0
 19 57  1  0
 19 58  1  0
 20 21  1  6
 22 20  1  1
 21 59  1  0
 21 60  1  0
 21 61  1  0
 22 23  1  0
 23 24  1  0
 23 25  1  0
 23 62  1  1
 24 63  1  0
 24 64  1  0
 24 65  1  0
 25 26  1  0
 25 66  1  0
 25 67  1  0
 26 27  1  0
 26 68  1  1
 27 28  1  0
 28 29  1  0
 28 69  1  1
M  END
>  <i_m_ct_stereo_status>  (312) 
1

>  <s_m_source_file>  (312) 
/var/tmp/pbs.5076255.sched01/tmpmzi298dc/117y2go66iu.sdf

>  <i_m_source_file_index>  (312) 
5

>  <i_lp_mmshare_version>  (312) 
48012

>  <i_f3d_flags>  (312) 
0

>  <s_epik_input>  (312) 
W0NIMl0xW0NIMl1bQ0BASF0oW09IXSlbQ0BdMihbQ0gzXSlbQ0BASF0oW0NIMl1bQ0gyXTMpW0NASF0oW0NIMl1bQ0BASF00W0NIM10pT1tDQEhdKE9bQ0BIXShbQ0gzXSlbQ0gyXTUpW0NAQEhdM1tDQEBIXShbT0hdKVtDSDJdW0NIMl1bQ0BdNihbQ0gzXSlbQ0hdNVtDSF0xW0NAXTI0Ng==

>  <s_epik_cmdline>  (312) 
J2VwaWtfcHl0aG9uJywgJy1waHQnLCAnMi4wJywgJy1waCcsICc3LjAnLCAnLXRuJywgJzgnLCAnLW1hJywgJzIwMCcsICctaW1hZScsICc8aW5maWxlLm1hZT4nLCAnLW9tYWUnLCAnPG91dGZpbGUubWFlPic=

>  <r_lp_tautomer_probability>  (312) 
1

>  <r_epik_Ionization_Penalty>  (312) 
3.19325e-06

>  <r_epik_Ionization_Penalty_Charging>  (312) 
0

>  <r_epik_Ionization_Penalty_Neutral>  (312) 
3.19325e-06

>  <r_epik_State_Penalty>  (312) 
-0

>  <r_epik_Charging_Adjusted_Penalty>  (312) 
0

>  <i_epik_Tot_Q>  (312) 
0

>  <i_epik_Tot_abs_Q>  (312) 
0

>  <s_epik_Chemistry_Notes>  (312) 
This compound contains an acetal/aminal-like group ( X-CH(R)-Y where X, Y are N, S, or O) that may be acid/base labile, releasing an aldehyde.

>  <s_lp_Force_Field>  (312) 
OPLS3e

>  <r_lp_Energy>  (312) 
242.705

>  <b_lp_Chiralities_Consistent>  (312) 
1

>  <s_lp_Variant>  (312) 
92:0-1

>  <s_i_glide_gridfile>  (312) 
pfpi4k_grid

>  <i_i_glide_lignum>  (312) 
5

>  <i_i_glide_rotatable_bonds>  (312) 
2

>  <r_i_docking_score>  (312) 
-2.11017

>  <r_i_glide_ligand_efficiency>  (312) 
-0.0727646

>  <r_i_glide_ligand_efficiency_sa>  (312) 
-0.223556

>  <r_i_glide_ligand_efficiency_ln>  (312) 
-0.483176

>  <r_i_glide_gscore>  (312) 
-2.11017

>  <r_i_glide_lipo>  (312) 
-0.759432

>  <r_i_glide_hbond>  (312) 
-0.32

>  <r_i_glide_metal>  (312) 
-0

>  <r_i_glide_rewards>  (312) 
-0.709685

>  <r_i_glide_evdw>  (312) 
1.88224

>  <r_i_glide_ecoul>  (312) 
-2.76779

>  <r_i_glide_erotb>  (312) 
0

>  <r_i_glide_esite>  (312) 
0

>  <r_i_glide_emodel>  (312) 
-2.41381

>  <r_i_glide_energy>  (312) 
-0.885549

>  <r_i_glide_einternal>  (312) 
0.831277

>  <r_i_glide_intrahb_reward>  (312) 
-0

>  <i_i_glide_confnum>  (312) 
2

>  <i_i_glide_posenum>  (312) 
35

>  <r_i_glide_eff_state_penalty>  (312) 
0

>  <ligand_id>  (312) 
92

>  <original_smiles>  (312) 
CC1CC2C3CCC(O)C4(C)C5CCC6C(O)CCC2(C)C34C(C)CC5OC6O1

>  <smiles>  (312) 
[H]OC1([H])C([H])([H])C([H])([H])C2(C([H])([H])[H])C3([H])C([H])([H])C([H])(C([H])([H])[H])OC4([H])OC5([H])C([H])([H])C([H])(C([H])([H])[H])C26C3([H])C([H])([H])C([H])([H])C([H])(O[H])C6(C([H])([H])[H])C5([H])C([H])([H])C([H])([H])C41[H]

$$$$
92:1:0
     RDKit          3D

 69 74  0  0  1  0  0  0  0  0999 V2000
    4.3234   -5.5102    5.9388 C   0  0  0  0  0  0  0  0  0  0  0  0
    4.8755   -5.9069    4.5534 C   0  0  2  0  0  0  0  0  0  0  0  0
    6.1996   -5.0643    4.1670 C   0  0  0  0  0  0  0  0  0  0  0  0
    6.5747   -4.6519    2.6452 C   0  0  2  0  0  0  0  0  0  0  0  0
    6.2555   -3.3233    1.8072 C   0  0  2  0  0  0  0  0  0  0  0  0
    6.5252   -1.8111    1.6885 C   0  0  0  0  0  0  0  0  0  0  0  0
    5.5253   -1.2320    0.6511 C   0  0  0  0  0  0  0  0  0  0  0  0
    4.0535   -1.7804    0.6404 C   0  0  1  0  0  0  0  0  0  0  0  0
    3.4334   -1.2068   -0.4985 O   0  0  0  0  0  0  0  0  0  0  0  0
    3.8692   -3.3708    0.6928 C   0  0  2  0  0  0  0  0  0  0  0  0
    4.2094   -3.8095   -0.7588 C   0  0  0  0  0  0  0  0  0  0  0  0
    2.3942   -3.9332    1.0354 C   0  0  1  0  0  0  0  0  0  0  0  0
    1.8691   -5.2265    0.3264 C   0  0  0  0  0  0  0  0  0  0  0  0
    1.2484   -6.3260    1.2133 C   0  0  0  0  0  0  0  0  0  0  0  0
    2.1078   -7.0226    2.3155 C   0  0  1  0  0  0  0  0  0  0  0  0
    3.2085   -8.0407    1.9242 C   0  0  1  0  0  0  0  0  0  0  0  0
    2.5860   -9.1241    1.2669 O   0  0  0  0  0  0  0  0  0  0  0  0
    4.3156   -7.5369    0.9882 C   0  0  0  0  0  0  0  0  0  0  0  0
    5.4786   -6.8444    1.7093 C   0  0  0  0  0  0  0  0  0  0  0  0
    5.7204   -5.2730    1.5362 C   0  0  2  0  0  0  0  0  0  0  0  0
    6.4775   -5.5126    0.1672 C   0  0  0  0  0  0  0  0  0  0  0  0
    4.8297   -3.8422    1.8102 C   0  0  1  0  0  0  0  0  0  0  0  0
    4.1518   -3.1557    3.1938 C   0  0  1  0  0  0  0  0  0  0  0  0
    4.7823   -1.9973    3.9998 C   0  0  0  0  0  0  0  0  0  0  0  0
    2.6524   -2.8456    3.2501 C   0  0  0  0  0  0  0  0  0  0  0  0
    1.9055   -3.8794    2.5236 C   0  0  2  0  0  0  0  0  0  0  0  0
    1.7230   -4.9706    3.4502 O   0  0  0  0  0  0  0  0  0  0  0  0
    2.5274   -6.1112    3.5030 C   0  0  2  0  0  0  0  0  0  0  0  0
    3.8938   -5.8391    3.4753 O   0  0  0  0  0  0  0  0  0  0  0  0
    5.1286   -5.4669    6.6697 H   0  0  0  0  0  0  0  0  0  0  0  0
    3.6083   -6.2447    6.2986 H   0  0  0  0  0  0  0  0  0  0  0  0
    3.8305   -4.5409    5.9520 H   0  0  0  0  0  0  0  0  0  0  0  0
    5.1617   -6.9522    4.6792 H   0  0  0  0  0  0  0  0  0  0  0  0
    6.2182   -4.1990    4.8236 H   0  0  0  0  0  0  0  0  0  0  0  0
    7.0332   -5.6496    4.5450 H   0  0  0  0  0  0  0  0  0  0  0  0
    7.5918   -4.9236    2.4335 H   0  0  0  0  0  0  0  0  0  0  0  0
    6.8199   -3.4401    0.9059 H   0  0  0  0  0  0  0  0  0  0  0  0
    6.5906   -1.2452    2.5977 H   0  0  0  0  0  0  0  0  0  0  0  0
    7.4983   -1.6118    1.2473 H   0  0  0  0  0  0  0  0  0  0  0  0
    5.5234   -0.1459    0.7646 H   0  0  0  0  0  0  0  0  0  0  0  0
    5.9750   -1.4149   -0.3260 H   0  0  0  0  0  0  0  0  0  0  0  0
    3.6111   -1.2642    1.4744 H   0  0  0  0  0  0  0  0  0  0  0  0
    2.4830   -1.2019   -0.4228 H   0  0  0  0  0  0  0  0  0  0  0  0
    4.3458   -4.8713   -0.8947 H   0  0  0  0  0  0  0  0  0  0  0  0
    5.0873   -3.3108   -1.1571 H   0  0  0  0  0  0  0  0  0  0  0  0
    3.3930   -3.5528   -1.4280 H   0  0  0  0  0  0  0  0  0  0  0  0
    1.8191   -3.1416    0.5514 H   0  0  0  0  0  0  0  0  0  0  0  0
    1.1381   -4.9406   -0.4286 H   0  0  0  0  0  0  0  0  0  0  0  0
    2.5843   -5.6842   -0.3223 H   0  0  0  0  0  0  0  0  0  0  0  0
    0.3299   -5.9589    1.6757 H   0  0  0  0  0  0  0  0  0  0  0  0
    0.9047   -7.0994    0.5379 H   0  0  0  0  0  0  0  0  0  0  0  0
    1.3491   -7.6507    2.7859 H   0  0  0  0  0  0  0  0  0  0  0  0
    3.6444   -8.4837    2.8240 H   0  0  0  0  0  0  0  0  0  0  0  0
    1.9505   -9.5352    1.8270 H   0  0  0  0  0  0  0  0  0  0  0  0
    4.7350   -8.4134    0.4942 H   0  0  0  0  0  0  0  0  0  0  0  0
    3.9576   -6.9610    0.1559 H   0  0  0  0  0  0  0  0  0  0  0  0
    5.5711   -7.2247    2.7025 H   0  0  0  0  0  0  0  0  0  0  0  0
    6.3666   -7.3994    1.3668 H   0  0  0  0  0  0  0  0  0  0  0  0
    5.9483   -6.2383   -0.4278 H   0  0  0  0  0  0  0  0  0  0  0  0
    7.5008   -5.8703    0.3184 H   0  0  0  0  0  0  0  0  0  0  0  0
    6.5560   -4.6783   -0.5111 H   0  0  0  0  0  0  0  0  0  0  0  0
    4.1717   -3.7894    4.0249 H   0  0  0  0  0  0  0  0  0  0  0  0
    4.6827   -1.0260    3.5179 H   0  0  0  0  0  0  0  0  0  0  0  0
    5.8112   -2.1759    4.3053 H   0  0  0  0  0  0  0  0  0  0  0  0
    4.2554   -1.8859    4.9469 H   0  0  0  0  0  0  0  0  0  0  0  0
    2.3214   -2.8333    4.2912 H   0  0  0  0  0  0  0  0  0  0  0  0
    2.3749   -1.8517    2.8977 H   0  0  0  0  0  0  0  0  0  0  0  0
    0.9217   -3.4552    2.4988 H   0  0  0  0  0  0  0  0  0  0  0  0
    2.3229   -6.6199    4.4472 H   0  0  0  0  0  0  0  0  0  0  0  0
  1  2  1  0
  1 30  1  0
  1 31  1  0
  1 32  1  0
  2 29  1  0
  2  3  1  0
  2 33  1  1
  3  4  1  0
  3 34  1  0
  3 35  1  0
  4 20  1  0
  4  5  1  0
  4 36  1  6
  5 22  1  0
  5  6  1  0
  5 37  1  6
  6  7  1  0
  6 38  1  0
  6 39  1  0
  7  8  1  0
  7 40  1  0
  7 41  1  0
  8  9  1  0
  8 10  1  0
  8 42  1  1
  9 43  1  0
 10 22  1  0
 10 11  1  6
 10 12  1  0
 11 44  1  0
 11 45  1  0
 11 46  1  0
 12 26  1  0
 12 13  1  0
 12 47  1  6
 13 14  1  0
 13 48  1  0
 13 49  1  0
 14 15  1  0
 14 50  1  0
 14 51  1  0
 15 28  1  0
 15 16  1  0
 15 52  1  1
 16 17  1  0
 16 18  1  0
 16 53  1  1
 17 54  1  0
 18 19  1  0
 18 55  1  0
 18 56  1  0
 19 20  1  0
 19 57  1  0
 19 58  1  0
 20 21  1  6
 22 20  1  1
 21 59  1  0
 21 60  1  0
 21 61  1  0
 22 23  1  0
 23 24  1  0
 23 25  1  0
 23 62  1  1
 24 63  1  0
 24 64  1  0
 24 65  1  0
 25 26  1  0
 25 66  1  0
 25 67  1  0
 26 27  1  0
 26 68  1  6
 27 28  1  0
 28 29  1  0
 28 69  1  1
M  END
>  <i_m_ct_stereo_status>  (313) 
1

>  <s_m_source_file>  (313) 
/var/tmp/pbs.5076255.sched01/tmpmzi298dc/117y2go66iu.sdf

>  <i_m_source_file_index>  (313) 
6

>  <i_lp_mmshare_version>  (313) 
48012

>  <i_f3d_flags>  (313) 
0

>  <s_epik_input>  (313) 
W0NIMl0xW0NIMl1bQ0BASF0oW09IXSlbQ0BdMihbQ0gzXSlbQ0BASF0oW0NIMl1bQ0gyXTMpW0NASF0oW0NIMl1bQ0BASF00W0NIM10pT1tDQEhdKE9bQ0BIXShbQ0gzXSlbQ0gyXTUpW0NAQEhdM1tDQEBIXShbT0hdKVtDSDJdW0NIMl1bQ0BdNihbQ0gzXSlbQ0hdNVtDSF0xW0NAXTI0Ng==

>  <s_epik_cmdline>  (313) 
J2VwaWtfcHl0aG9uJywgJy1waHQnLCAnMi4wJywgJy1waCcsICc3LjAnLCAnLXRuJywgJzgnLCAnLW1hJywgJzIwMCcsICctaW1hZScsICc8aW5maWxlLm1hZT4nLCAnLW9tYWUnLCAnPG91dGZpbGUubWFlPic=

>  <r_lp_tautomer_probability>  (313) 
1

>  <r_epik_Ionization_Penalty>  (313) 
3.19325e-06

>  <r_epik_Ionization_Penalty_Charging>  (313) 
0

>  <r_epik_Ionization_Penalty_Neutral>  (313) 
3.19325e-06

>  <r_epik_State_Penalty>  (313) 
-0

>  <r_epik_Charging_Adjusted_Penalty>  (313) 
0

>  <i_epik_Tot_Q>  (313) 
0

>  <i_epik_Tot_abs_Q>  (313) 
0

>  <s_epik_Chemistry_Notes>  (313) 
This compound contains an acetal/aminal-like group ( X-CH(R)-Y where X, Y are N, S, or O) that may be acid/base labile, releasing an aldehyde.

>  <s_lp_Force_Field>  (313) 
OPLS3e

>  <r_lp_Energy>  (313) 
269.783

>  <b_lp_Chiralities_Consistent>  (313) 
1

>  <s_lp_Variant>  (313) 
92:0-2

>  <s_i_glide_gridfile>  (313) 
pfpi4k_grid

>  <i_i_glide_lignum>  (313) 
6

>  <i_i_glide_rotatable_bonds>  (313) 
2

>  <r_i_docking_score>  (313) 
-2.70163

>  <r_i_glide_ligand_efficiency>  (313) 
-0.0931596

>  <r_i_glide_ligand_efficiency_sa>  (313) 
-0.286216

>  <r_i_glide_ligand_efficiency_ln>  (313) 
-0.618604

>  <r_i_glide_gscore>  (313) 
-2.70163

>  <r_i_glide_lipo>  (313) 
-0.620246

>  <r_i_glide_hbond>  (313) 
-0.16

>  <r_i_glide_metal>  (313) 
-0

>  <r_i_glide_rewards>  (313) 
-0.650572

>  <r_i_glide_evdw>  (313) 
-12.9532

>  <r_i_glide_ecoul>  (313) 
-4.15064

>  <r_i_glide_erotb>  (313) 
0

>  <r_i_glide_esite>  (313) 
-0.000552852

>  <r_i_glide_emodel>  (313) 
-17.6059

>  <r_i_glide_energy>  (313) 
-17.1038

>  <r_i_glide_einternal>  (313) 
0.757961

>  <r_i_glide_intrahb_reward>  (313) 
-0

>  <i_i_glide_confnum>  (313) 
1

>  <i_i_glide_posenum>  (313) 
7

>  <r_i_glide_eff_state_penalty>  (313) 
0

>  <ligand_id>  (313) 
92

>  <original_smiles>  (313) 
CC1CC2C3CCC(O)C4(C)C5CCC6C(O)CCC2(C)C34C(C)CC5OC6O1

>  <smiles>  (313) 
[H]OC1([H])C([H])([H])C([H])([H])C2(C([H])([H])[H])C3([H])C([H])([H])C([H])(C([H])([H])[H])OC4([H])OC5([H])C([H])([H])C([H])(C([H])([H])[H])C26C3([H])C([H])([H])C([H])([H])C([H])(O[H])C6(C([H])([H])[H])C5([H])C([H])([H])C([H])([H])C41[H]

$$$$
92:1:1
     RDKit          3D

 69 74  0  0  1  0  0  0  0  0999 V2000
    4.2214   -5.0908    6.1952 C   0  0  0  0  0  0  0  0  0  0  0  0
    4.7769   -5.6641    4.8760 C   0  0  2  0  0  0  0  0  0  0  0  0
    6.1282   -4.9113    4.4001 C   0  0  0  0  0  0  0  0  0  0  0  0
    6.5193   -4.7074    2.8545 C   0  0  2  0  0  0  0  0  0  0  0  0
    6.2473   -3.4746    1.8551 C   0  0  2  0  0  0  0  0  0  0  0  0
    6.5595   -1.9973    1.5858 C   0  0  0  0  0  0  0  0  0  0  0  0
    5.5770   -1.5151    0.4546 C   0  0  0  0  0  0  0  0  0  0  0  0
    4.0808   -2.0183    0.4848 C   0  0  1  0  0  0  0  0  0  0  0  0
    3.4244   -1.5540   -0.6925 O   0  0  0  0  0  0  0  0  0  0  0  0
    3.8553   -3.5875    0.7293 C   0  0  2  0  0  0  0  0  0  0  0  0
    4.2012   -4.2034   -0.6606 C   0  0  0  0  0  0  0  0  0  0  0  0
    2.3706   -4.0756    1.1182 C   0  0  1  0  0  0  0  0  0  0  0  0
    1.8164   -5.4273    0.5542 C   0  0  0  0  0  0  0  0  0  0  0  0
    1.1646   -6.3984    1.5619 C   0  0  0  0  0  0  0  0  0  0  0  0
    1.9953   -6.9817    2.7452 C   0  0  1  0  0  0  0  0  0  0  0  0
    3.0541   -8.0750    2.4633 C   0  0  1  0  0  0  0  0  0  0  0  0
    2.3699   -9.1655    1.8668 O   0  0  0  0  0  0  0  0  0  0  0  0
    4.2013   -7.6982    1.5162 C   0  0  0  0  0  0  0  0  0  0  0  0
    5.3695   -6.9604    2.1780 C   0  0  0  0  0  0  0  0  0  0  0  0
    5.6605   -5.4217    1.8158 C   0  0  2  0  0  0  0  0  0  0  0  0
    6.4154   -5.8664    0.4809 C   0  0  0  0  0  0  0  0  0  0  0  0
    4.8059   -3.9543    1.9070 C   0  0  1  0  0  0  0  0  0  0  0  0
    4.1242   -3.0811    3.1927 C   0  0  1  0  0  0  0  0  0  0  0  0
    4.7826   -1.8446    3.8623 C   0  0  0  0  0  0  0  0  0  0  0  0
    2.6383   -2.7290    3.1946 C   0  0  0  0  0  0  0  0  0  0  0  0
    1.8667   -3.8217    2.5816 C   0  0  2  0  0  0  0  0  0  0  0  0
    1.6535   -4.7938    3.6352 O   0  0  0  0  0  0  0  0  0  0  0  0
    2.4300   -5.9441    3.8285 C   0  0  2  0  0  0  0  0  0  0  0  0
    3.8000   -5.7093    3.7876 O   0  0  0  0  0  0  0  0  0  0  0  0
    5.0209   -4.9779    6.9285 H   0  0  0  0  0  0  0  0  0  0  0  0
    3.4822   -5.7608    6.6320 H   0  0  0  0  0  0  0  0  0  0  0  0
    3.7488   -4.1162    6.0876 H   0  0  0  0  0  0  0  0  0  0  0  0
    5.0295   -6.6919    5.1320 H   0  0  0  0  0  0  0  0  0  0  0  0
    6.1974   -3.9657    4.9290 H   0  0  0  0  0  0  0  0  0  0  0  0
    6.9437   -5.4639    4.8664 H   0  0  0  0  0  0  0  0  0  0  0  0
    7.5400   -5.0648    2.6994 H   0  0  0  0  0  0  0  0  0  0  0  0
    6.7979   -3.7065    0.9649 H   0  0  0  0  0  0  0  0  0  0  0  0
    6.6139   -1.3230    2.4268 H   0  0  0  0  0  0  0  0  0  0  0  0
    7.5646   -1.8907    1.1946 H   0  0  0  0  0  0  0  0  0  0  0  0
    5.5914   -0.4223    0.4349 H   0  0  0  0  0  0  0  0  0  0  0  0
    6.0252   -1.8200   -0.4930 H   0  0  0  0  0  0  0  0  0  0  0  0
    3.6491   -1.4015    1.2529 H   0  0  0  0  0  0  0  0  0  0  0  0
    2.4856   -1.4601   -0.5614 H   0  0  0  0  0  0  0  0  0  0  0  0
    4.3067   -5.2801   -0.6729 H   0  0  0  0  0  0  0  0  0  0  0  0
    5.0988   -3.7859   -1.1108 H   0  0  0  0  0  0  0  0  0  0  0  0
    3.3949   -4.0010   -1.3645 H   0  0  0  0  0  0  0  0  0  0  0  0
    1.8255   -3.3351    0.5452 H   0  0  0  0  0  0  0  0  0  0  0  0
    1.0591   -5.1777   -0.1859 H   0  0  0  0  0  0  0  0  0  0  0  0
    2.4926   -5.9700   -0.0817 H   0  0  0  0  0  0  0  0  0  0  0  0
    0.2560   -5.9537    1.9621 H   0  0  0  0  0  0  0  0  0  0  0  0
    0.7969   -7.2410    0.9813 H   0  0  0  0  0  0  0  0  0  0  0  0
    1.2222   -7.5352    3.2816 H   0  0  0  0  0  0  0  0  0  0  0  0
    3.4574   -8.4427    3.4090 H   0  0  0  0  0  0  0  0  0  0  0  0
    2.9587   -9.8950    1.7754 H   0  0  0  0  0  0  0  0  0  0  0  0
    4.6143   -8.6296    1.1313 H   0  0  0  0  0  0  0  0  0  0  0  0
    3.8599   -7.2050    0.6222 H   0  0  0  0  0  0  0  0  0  0  0  0
    5.4405   -7.2243    3.2149 H   0  0  0  0  0  0  0  0  0  0  0  0
    6.2429   -7.5661    1.9262 H   0  0  0  0  0  0  0  0  0  0  0  0
    5.8648   -6.6350   -0.0229 H   0  0  0  0  0  0  0  0  0  0  0  0
    7.4241   -6.2372    0.6890 H   0  0  0  0  0  0  0  0  0  0  0  0
    6.5493   -5.1211   -0.3120 H   0  0  0  0  0  0  0  0  0  0  0  0
    4.1304   -3.6134    4.0898 H   0  0  0  0  0  0  0  0  0  0  0  0
    4.7065   -0.9374    3.2630 H   0  0  0  0  0  0  0  0  0  0  0  0
    5.8049   -2.0070    4.1943 H   0  0  0  0  0  0  0  0  0  0  0  0
    4.2513   -1.6069    4.7859 H   0  0  0  0  0  0  0  0  0  0  0  0
    2.2944   -2.5789    4.2221 H   0  0  0  0  0  0  0  0  0  0  0  0
    2.3903   -1.7817    2.7209 H   0  0  0  0  0  0  0  0  0  0  0  0
    0.8903   -3.3746    2.5012 H   0  0  0  0  0  0  0  0  0  0  0  0
    2.1988   -6.3335    4.8213 H   0  0  0  0  0  0  0  0  0  0  0  0
  1  2  1  0
  1 30  1  0
  1 31  1  0
  1 32  1  0
  2 29  1  0
  2  3  1  0
  2 33  1  1
  3  4  1  0
  3 34  1  0
  3 35  1  0
  4 20  1  0
  4  5  1  0
  4 36  1  1
  5 22  1  0
  5  6  1  0
  5 37  1  6
  6  7  1  0
  6 38  1  0
  6 39  1  0
  7  8  1  0
  7 40  1  0
  7 41  1  0
  8  9  1  0
  8 10  1  0
  8 42  1  1
  9 43  1  0
 10 22  1  0
 10 11  1  6
 10 12  1  0
 11 44  1  0
 11 45  1  0
 11 46  1  0
 12 26  1  0
 12 13  1  0
 12 47  1  6
 13 14  1  0
 13 48  1  0
 13 49  1  0
 14 15  1  0
 14 50  1  0
 14 51  1  0
 15 28  1  0
 15 16  1  0
 15 52  1  1
 16 17  1  0
 16 18  1  0
 16 53  1  1
 17 54  1  0
 18 19  1  0
 18 55  1  0
 18 56  1  0
 19 20  1  0
 19 57  1  0
 19 58  1  0
 20 21  1  6
 22 20  1  1
 21 59  1  0
 21 60  1  0
 21 61  1  0
 22 23  1  0
 23 24  1  0
 23 25  1  0
 23 62  1  1
 24 63  1  0
 24 64  1  0
 24 65  1  0
 25 26  1  0
 25 66  1  0
 25 67  1  0
 26 27  1  0
 26 68  1  6
 27 28  1  0
 28 29  1  0
 28 69  1  1
M  END
>  <i_m_ct_stereo_status>  (314) 
1

>  <s_m_source_file>  (314) 
/var/tmp/pbs.5076255.sched01/tmpmzi298dc/117y2go66iu.sdf

>  <i_m_source_file_index>  (314) 
6

>  <i_lp_mmshare_version>  (314) 
48012

>  <i_f3d_flags>  (314) 
0

>  <s_epik_input>  (314) 
W0NIMl0xW0NIMl1bQ0BASF0oW09IXSlbQ0BdMihbQ0gzXSlbQ0BASF0oW0NIMl1bQ0gyXTMpW0NASF0oW0NIMl1bQ0BASF00W0NIM10pT1tDQEhdKE9bQ0BIXShbQ0gzXSlbQ0gyXTUpW0NAQEhdM1tDQEBIXShbT0hdKVtDSDJdW0NIMl1bQ0BdNihbQ0gzXSlbQ0hdNVtDSF0xW0NAXTI0Ng==

>  <s_epik_cmdline>  (314) 
J2VwaWtfcHl0aG9uJywgJy1waHQnLCAnMi4wJywgJy1waCcsICc3LjAnLCAnLXRuJywgJzgnLCAnLW1hJywgJzIwMCcsICctaW1hZScsICc8aW5maWxlLm1hZT4nLCAnLW9tYWUnLCAnPG91dGZpbGUubWFlPic=

>  <r_lp_tautomer_probability>  (314) 
1

>  <r_epik_Ionization_Penalty>  (314) 
3.19325e-06

>  <r_epik_Ionization_Penalty_Charging>  (314) 
0

>  <r_epik_Ionization_Penalty_Neutral>  (314) 
3.19325e-06

>  <r_epik_State_Penalty>  (314) 
-0

>  <r_epik_Charging_Adjusted_Penalty>  (314) 
0

>  <i_epik_Tot_Q>  (314) 
0

>  <i_epik_Tot_abs_Q>  (314) 
0

>  <s_epik_Chemistry_Notes>  (314) 
This compound contains an acetal/aminal-like group ( X-CH(R)-Y where X, Y are N, S, or O) that may be acid/base labile, releasing an aldehyde.

>  <s_lp_Force_Field>  (314) 
OPLS3e

>  <r_lp_Energy>  (314) 
269.783

>  <b_lp_Chiralities_Consistent>  (314) 
1

>  <s_lp_Variant>  (314) 
92:0-2

>  <s_i_glide_gridfile>  (314) 
pfpi4k_grid

>  <i_i_glide_lignum>  (314) 
6

>  <i_i_glide_rotatable_bonds>  (314) 
2

>  <r_i_docking_score>  (314) 
-2.36679

>  <r_i_glide_ligand_efficiency>  (314) 
-0.0816134

>  <r_i_glide_ligand_efficiency_sa>  (314) 
-0.250742

>  <r_i_glide_ligand_efficiency_ln>  (314) 
-0.541935

>  <r_i_glide_gscore>  (314) 
-2.36679

>  <r_i_glide_lipo>  (314) 
-0.456115

>  <r_i_glide_hbond>  (314) 
-0.16

>  <r_i_glide_metal>  (314) 
-0

>  <r_i_glide_rewards>  (314) 
-0.650572

>  <r_i_glide_evdw>  (314) 
-12.5918

>  <r_i_glide_ecoul>  (314) 
-3.13464

>  <r_i_glide_erotb>  (314) 
0

>  <r_i_glide_esite>  (314) 
-0.000315586

>  <r_i_glide_emodel>  (314) 
-16.3596

>  <r_i_glide_energy>  (314) 
-15.7265

>  <r_i_glide_einternal>  (314) 
0.838989

>  <r_i_glide_intrahb_reward>  (314) 
-0

>  <i_i_glide_confnum>  (314) 
2

>  <i_i_glide_posenum>  (314) 
39

>  <r_i_glide_eff_state_penalty>  (314) 
0

>  <ligand_id>  (314) 
92

>  <original_smiles>  (314) 
CC1CC2C3CCC(O)C4(C)C5CCC6C(O)CCC2(C)C34C(C)CC5OC6O1

>  <smiles>  (314) 
[H]OC1([H])C([H])([H])C([H])([H])C2(C([H])([H])[H])C3([H])C([H])([H])C([H])(C([H])([H])[H])OC4([H])OC5([H])C([H])([H])C([H])(C([H])([H])[H])C26C3([H])C([H])([H])C([H])([H])C([H])(O[H])C6(C([H])([H])[H])C5([H])C([H])([H])C([H])([H])C41[H]

$$$$
95:0:0
     RDKit          3D

 48 52  0  0  1  0  0  0  0  0999 V2000
    6.4024   -4.9437    0.3759 C   0  0  0  0  0  0  0  0  0  0  0  0
    5.4923   -3.7946    0.8111 C   0  0  0  0  0  0  0  0  0  0  0  0
    5.3579   -2.6947   -0.0655 C   0  0  0  0  0  0  0  0  0  0  0  0
    5.8348   -2.4995   -1.3826 C   0  0  0  0  0  0  0  0  0  0  0  0
    5.4227   -1.3378   -1.8442 N   0  0  0  0  0  0  0  0  0  0  0  0
    4.7107   -0.7807   -0.8071 N   0  0  0  0  0  0  0  0  0  0  0  0
    4.6303   -1.5708    0.3297 C   0  0  0  0  0  0  0  0  0  0  0  0
    4.0851   -1.4788    1.6154 C   0  0  0  0  0  0  0  0  0  0  0  0
    3.1877   -0.0519    1.9791 Cl  0  0  0  0  0  0  0  0  0  0  0  0
    4.2704   -2.5711    2.4924 C   0  0  0  0  0  0  0  0  0  0  0  0
    3.8066   -2.4678    3.9134 C   0  0  0  0  0  0  0  0  0  0  0  0
    3.9757   -1.1774    4.6995 C   0  0  0  0  0  0  0  0  0  0  0  0
    3.3707   -3.5608    4.5245 C   0  0  0  0  0  0  0  0  0  0  0  0
    3.4065   -4.8624    3.8152 C   0  0  1  0  0  0  0  0  0  0  0  0
    1.8435   -5.1016    2.8761 S   0  0  0  0  0  0  0  0  0  0  0  0
    1.5179   -6.8140    3.1821 C   0  0  0  0  0  0  0  0  0  0  0  0
    2.0311   -7.4610    4.2164 N   0  0  0  0  0  0  0  0  0  0  0  0
    1.7739   -8.8224    4.1119 C   0  0  0  0  0  0  0  0  0  0  0  0
    2.2679   -9.8330    4.9620 C   0  0  0  0  0  0  0  0  0  0  0  0
    1.8669  -11.1730    4.8161 C   0  0  0  0  0  0  0  0  0  0  0  0
    0.9823  -11.5216    3.7805 C   0  0  0  0  0  0  0  0  0  0  0  0
    0.5232  -10.5455    2.8803 C   0  0  0  0  0  0  0  0  0  0  0  0
    0.9144   -9.2025    3.0400 C   0  0  0  0  0  0  0  0  0  0  0  0
    0.4886   -7.7704    2.0886 S   0  0  0  0  0  0  0  0  0  0  0  0
    4.7176   -4.9928    2.9351 C   0  0  0  0  0  0  0  0  0  0  0  0
    5.9257   -5.0553    3.8980 C   0  0  0  0  0  0  0  0  0  0  0  0
    4.6325   -6.3509    2.1785 C   0  0  0  0  0  0  0  0  0  0  0  0
    4.8444   -3.7564    2.0345 N   0  0  0  0  0  0  0  0  0  0  0  0
    4.3040    0.1529   -0.8720 H   0  0  0  0  0  0  0  0  0  0  0  0
    7.1659   -4.6104   -0.3219 H   0  0  0  0  0  0  0  0  0  0  0  0
    5.8391   -5.7511   -0.1015 H   0  0  0  0  0  0  0  0  0  0  0  0
    6.4416   -3.2008   -1.9449 H   0  0  0  0  0  0  0  0  0  0  0  0
    4.8809   -0.6604    4.3871 H   0  0  0  0  0  0  0  0  0  0  0  0
    4.0620   -1.3881    5.7659 H   0  0  0  0  0  0  0  0  0  0  0  0
    3.1124   -0.5273    4.5624 H   0  0  0  0  0  0  0  0  0  0  0  0
    3.0429   -3.5819    5.5435 H   0  0  0  0  0  0  0  0  0  0  0  0
    3.5348   -5.5070    4.6818 H   0  0  0  0  0  0  0  0  0  0  0  0
    2.9409   -9.5563    5.7512 H   0  0  0  0  0  0  0  0  0  0  0  0
    2.2170  -11.9102    5.5335 H   0  0  0  0  0  0  0  0  0  0  0  0
    0.6332  -12.5489    3.7011 H   0  0  0  0  0  0  0  0  0  0  0  0
   -0.1632  -10.7943    2.0826 H   0  0  0  0  0  0  0  0  0  0  0  0
    5.8259   -5.8801    4.6098 H   0  0  0  0  0  0  0  0  0  0  0  0
    6.0243   -4.1485    4.4904 H   0  0  0  0  0  0  0  0  0  0  0  0
    6.8652   -5.2136    3.3713 H   0  0  0  0  0  0  0  0  0  0  0  0
    4.2491   -7.1431    2.8195 H   0  0  0  0  0  0  0  0  0  0  0  0
    5.5973   -6.7723    1.9015 H   0  0  0  0  0  0  0  0  0  0  0  0
    3.9937   -6.2992    1.2982 H   0  0  0  0  0  0  0  0  0  0  0  0
    6.9790   -5.3463    1.2101 H   0  0  0  0  0  0  0  0  0  0  0  0
  1  2  1  0
  1 30  1  0
  1 31  1  0
  1 48  1  0
  2 28  2  0
  2  3  1  0
  3  7  2  0
  3  4  1  0
  4  5  2  0
  4 32  1  0
  5  6  1  0
  6 29  1  0
  6  7  1  0
  7  8  1  0
  8  9  1  0
  8 10  2  0
 10 28  1  0
 10 11  1  0
 11 12  1  0
 11 13  2  0
 12 33  1  0
 12 34  1  0
 12 35  1  0
 13 14  1  0
 13 36  1  0
 14 15  1  0
 14 25  1  0
 14 37  1  1
 15 16  1  0
 16 24  1  0
 16 17  2  0
 17 18  1  0
 18 23  2  0
 18 19  1  0
 19 20  2  0
 19 38  1  0
 20 21  1  0
 20 39  1  0
 21 22  2  0
 21 40  1  0
 22 23  1  0
 22 41  1  0
 23 24  1  0
 25 26  1  0
 25 27  1  0
 25 28  1  0
 26 42  1  0
 26 43  1  0
 26 44  1  0
 27 45  1  0
 27 46  1  0
 27 47  1  0
M  CHG  1  28   1
M  END
>  <i_m_ct_stereo_status>  (315) 
1

>  <s_m_source_file>  (315) 
/var/tmp/pbs.5076255.sched01/tmpmzi298dc/117y2go66iu.sdf

>  <i_m_source_file_index>  (315) 
12

>  <i_lp_mmshare_version>  (315) 
48012

>  <i_f3d_flags>  (315) 
0

>  <s_epik_input>  (315) 
W2NIXTFuW25IXWMoYzEyKUMoQ2wpPUMzTihDMj1bQ0gyXSlDKFtDSDNdKShbQ0gzXSlbQ0BASF0oW0NIXT1DM1tDSDNdKVNjKG40KXNjKGM0NSlbY0hdW2NIXVtjSF1bY0hdNQ==

>  <s_epik_cmdline>  (315) 
J2VwaWtfcHl0aG9uJywgJy1waHQnLCAnMi4wJywgJy1waCcsICc3LjAnLCAnLXRuJywgJzgnLCAnLW1hJywgJzIwMCcsICctaW1hZScsICc8aW5maWxlLm1hZT4nLCAnLW9tYWUnLCAnPG91dGZpbGUubWFlPic=

>  <r_lp_tautomer_probability>  (315) 
1

>  <r_epik_Ionization_Penalty>  (315) 
0.000207948

>  <r_epik_Ionization_Penalty_Charging>  (315) 
0

>  <r_epik_Ionization_Penalty_Neutral>  (315) 
0.000207948

>  <r_epik_State_Penalty>  (315) 
-0

>  <r_epik_Charging_Adjusted_Penalty>  (315) 
0

>  <i_epik_Tot_Q>  (315) 
1

>  <i_epik_Tot_abs_Q>  (315) 
1

>  <s_lp_Force_Field>  (315) 
OPLS3e

>  <r_lp_Energy>  (315) 
67.6071

>  <b_lp_Chiralities_Consistent>  (315) 
1

>  <s_lp_Variant>  (315) 
95:0-1

>  <s_i_glide_gridfile>  (315) 
pfpi4k_grid

>  <i_i_glide_lignum>  (315) 
12

>  <i_i_glide_rotatable_bonds>  (315) 
2

>  <r_i_docking_score>  (315) 
-2.81862

>  <r_i_glide_ligand_efficiency>  (315) 
-0.100665

>  <r_i_glide_ligand_efficiency_sa>  (315) 
-0.305679

>  <r_i_glide_ligand_efficiency_ln>  (315) 
-0.650621

>  <r_i_glide_gscore>  (315) 
-2.81862

>  <r_i_glide_lipo>  (315) 
-0.452851

>  <r_i_glide_hbond>  (315) 
-0.0812529

>  <r_i_glide_metal>  (315) 
-0

>  <r_i_glide_rewards>  (315) 
-0.531022

>  <r_i_glide_evdw>  (315) 
-28.3042

>  <r_i_glide_ecoul>  (315) 
-3.43537

>  <r_i_glide_erotb>  (315) 
0.216834

>  <r_i_glide_esite>  (315) 
-0.0398187

>  <r_i_glide_emodel>  (315) 
-36.069

>  <r_i_glide_energy>  (315) 
-31.7395

>  <r_i_glide_einternal>  (315) 
2.06764

>  <r_i_glide_intrahb_reward>  (315) 
-0

>  <i_i_glide_confnum>  (315) 
4

>  <i_i_glide_posenum>  (315) 
21

>  <r_i_glide_eff_state_penalty>  (315) 
0

>  <ligand_id>  (315) 
95

>  <original_smiles>  (315) 
C=C1c2cn[nH]c2C(Cl)=C2C(C)=CC(Sc3nc4ccccc4s3)C(C)(C)N12

>  <smiles>  (315) 
[H]C1=C(C([H])([H])[H])c2c(Cl)c3c(c([H])nn3[H])c(C([H])([H])[H])[n+]2C(C([H])([H])[H])(C([H])([H])[H])C1([H])Sc1nc2c([H])c([H])c([H])c([H])c2s1

$$$$
95:0:1
     RDKit          3D

 48 52  0  0  1  0  0  0  0  0999 V2000
    3.9639    1.3831    6.1836 C   0  0  0  0  0  0  0  0  0  0  0  0
    2.7835    1.2514    5.2256 C   0  0  0  0  0  0  0  0  0  0  0  0
    2.4857    2.3540    4.3823 C   0  0  0  0  0  0  0  0  0  0  0  0
    3.1604    3.5661    4.1693 C   0  0  0  0  0  0  0  0  0  0  0  0
    2.5378    4.2860    3.2491 N   0  0  0  0  0  0  0  0  0  0  0  0
    1.4452    3.5289    2.8895 N   0  0  0  0  0  0  0  0  0  0  0  0
    1.3480    2.3232    3.5650 C   0  0  0  0  0  0  0  0  0  0  0  0
    0.4505    1.2584    3.6175 C   0  0  0  0  0  0  0  0  0  0  0  0
   -0.9184    1.3209    2.5590 Cl  0  0  0  0  0  0  0  0  0  0  0  0
    0.7271    0.1903    4.5105 C   0  0  0  0  0  0  0  0  0  0  0  0
   -0.2703   -0.8974    4.7282 C   0  0  0  0  0  0  0  0  0  0  0  0
   -1.7590   -0.6041    4.7706 C   0  0  0  0  0  0  0  0  0  0  0  0
    0.1731   -2.1264    5.0008 C   0  0  0  0  0  0  0  0  0  0  0  0
    1.6479   -2.3739    5.1320 C   0  0  1  0  0  0  0  0  0  0  0  0
    2.3942   -2.7385    3.4929 S   0  0  0  0  0  0  0  0  0  0  0  0
    1.8005   -4.3899    3.2852 C   0  0  0  0  0  0  0  0  0  0  0  0
    0.9065   -4.9455    4.1127 N   0  0  0  0  0  0  0  0  0  0  0  0
    0.6150   -6.2406    3.7292 C   0  0  0  0  0  0  0  0  0  0  0  0
   -0.2867   -7.1095    4.3773 C   0  0  0  0  0  0  0  0  0  0  0  0
   -0.5099   -8.4141    3.9056 C   0  0  0  0  0  0  0  0  0  0  0  0
    0.1664   -8.8632    2.7541 C   0  0  0  0  0  0  0  0  0  0  0  0
    1.0649   -8.0060    2.0841 C   0  0  0  0  0  0  0  0  0  0  0  0
    1.2858   -6.7034    2.5638 C   0  0  0  0  0  0  0  0  0  0  0  0
    2.3381   -5.4183    1.9463 S   0  0  0  0  0  0  0  0  0  0  0  0
    2.3078   -1.1817    5.8845 C   0  0  0  0  0  0  0  0  0  0  0  0
    1.7649   -1.1610    7.3410 C   0  0  0  0  0  0  0  0  0  0  0  0
    3.8252   -1.5386    5.9157 C   0  0  0  0  0  0  0  0  0  0  0  0
    1.9472    0.1440    5.1841 N   0  0  0  0  0  0  0  0  0  0  0  0
    0.8178    3.8449    2.1378 H   0  0  0  0  0  0  0  0  0  0  0  0
    4.1996    2.4225    6.3956 H   0  0  0  0  0  0  0  0  0  0  0  0
    4.8633    0.9279    5.7797 H   0  0  0  0  0  0  0  0  0  0  0  0
    4.0818    3.8632    4.6408 H   0  0  0  0  0  0  0  0  0  0  0  0
   -1.9441    0.3764    5.2079 H   0  0  0  0  0  0  0  0  0  0  0  0
   -2.2937   -1.3455    5.3669 H   0  0  0  0  0  0  0  0  0  0  0  0
   -2.1765   -0.6319    3.7680 H   0  0  0  0  0  0  0  0  0  0  0  0
   -0.5033   -2.9597    5.1659 H   0  0  0  0  0  0  0  0  0  0  0  0
    1.7763   -3.2409    5.7813 H   0  0  0  0  0  0  0  0  0  0  0  0
   -0.7965   -6.7626    5.2632 H   0  0  0  0  0  0  0  0  0  0  0  0
   -1.1942   -9.0631    4.4315 H   0  0  0  0  0  0  0  0  0  0  0  0
    0.0096   -9.8661    2.3817 H   0  0  0  0  0  0  0  0  0  0  0  0
    1.5876   -8.3454    1.2053 H   0  0  0  0  0  0  0  0  0  0  0  0
    1.9295   -2.1204    7.8407 H   0  0  0  0  0  0  0  0  0  0  0  0
    0.6913   -0.9723    7.3762 H   0  0  0  0  0  0  0  0  0  0  0  0
    2.2388   -0.3985    7.9584 H   0  0  0  0  0  0  0  0  0  0  0  0
    3.9789   -2.6166    6.0304 H   0  0  0  0  0  0  0  0  0  0  0  0
    4.3613   -1.1072    6.7610 H   0  0  0  0  0  0  0  0  0  0  0  0
    4.3324   -1.2539    4.9914 H   0  0  0  0  0  0  0  0  0  0  0  0
    3.7514    0.9492    7.1541 H   0  0  0  0  0  0  0  0  0  0  0  0
  1  2  1  0
  1 30  1  0
  1 31  1  0
  1 48  1  0
  2 28  2  0
  2  3  1  0
  3  7  2  0
  3  4  1  0
  4  5  2  0
  4 32  1  0
  5  6  1  0
  6 29  1  0
  6  7  1  0
  7  8  1  0
  8  9  1  0
  8 10  2  0
 10 28  1  0
 10 11  1  0
 11 12  1  0
 11 13  2  0
 12 33  1  0
 12 34  1  0
 12 35  1  0
 13 14  1  0
 13 36  1  0
 14 15  1  0
 14 25  1  0
 14 37  1  1
 15 16  1  0
 16 24  1  0
 16 17  2  0
 17 18  1  0
 18 23  2  0
 18 19  1  0
 19 20  2  0
 19 38  1  0
 20 21  1  0
 20 39  1  0
 21 22  2  0
 21 40  1  0
 22 23  1  0
 22 41  1  0
 23 24  1  0
 25 26  1  0
 25 27  1  0
 25 28  1  0
 26 42  1  0
 26 43  1  0
 26 44  1  0
 27 45  1  0
 27 46  1  0
 27 47  1  0
M  CHG  1  28   1
M  END
>  <i_m_ct_stereo_status>  (316) 
1

>  <s_m_source_file>  (316) 
/var/tmp/pbs.5076255.sched01/tmpmzi298dc/117y2go66iu.sdf

>  <i_m_source_file_index>  (316) 
12

>  <i_lp_mmshare_version>  (316) 
48012

>  <i_f3d_flags>  (316) 
0

>  <s_epik_input>  (316) 
W2NIXTFuW25IXWMoYzEyKUMoQ2wpPUMzTihDMj1bQ0gyXSlDKFtDSDNdKShbQ0gzXSlbQ0BASF0oW0NIXT1DM1tDSDNdKVNjKG40KXNjKGM0NSlbY0hdW2NIXVtjSF1bY0hdNQ==

>  <s_epik_cmdline>  (316) 
J2VwaWtfcHl0aG9uJywgJy1waHQnLCAnMi4wJywgJy1waCcsICc3LjAnLCAnLXRuJywgJzgnLCAnLW1hJywgJzIwMCcsICctaW1hZScsICc8aW5maWxlLm1hZT4nLCAnLW9tYWUnLCAnPG91dGZpbGUubWFlPic=

>  <r_lp_tautomer_probability>  (316) 
1

>  <r_epik_Ionization_Penalty>  (316) 
0.000207948

>  <r_epik_Ionization_Penalty_Charging>  (316) 
0

>  <r_epik_Ionization_Penalty_Neutral>  (316) 
0.000207948

>  <r_epik_State_Penalty>  (316) 
-0

>  <r_epik_Charging_Adjusted_Penalty>  (316) 
0

>  <i_epik_Tot_Q>  (316) 
1

>  <i_epik_Tot_abs_Q>  (316) 
1

>  <s_lp_Force_Field>  (316) 
OPLS3e

>  <r_lp_Energy>  (316) 
67.6071

>  <b_lp_Chiralities_Consistent>  (316) 
1

>  <s_lp_Variant>  (316) 
95:0-1

>  <s_i_glide_gridfile>  (316) 
pfpi4k_grid

>  <i_i_glide_lignum>  (316) 
12

>  <i_i_glide_rotatable_bonds>  (316) 
2

>  <r_i_docking_score>  (316) 
-2.53943

>  <r_i_glide_ligand_efficiency>  (316) 
-0.0906938

>  <r_i_glide_ligand_efficiency_sa>  (316) 
-0.2754

>  <r_i_glide_ligand_efficiency_ln>  (316) 
-0.586174

>  <r_i_glide_gscore>  (316) 
-2.53943

>  <r_i_glide_lipo>  (316) 
-0.00144231

>  <r_i_glide_hbond>  (316) 
-0.16

>  <r_i_glide_metal>  (316) 
-0

>  <r_i_glide_rewards>  (316) 
-0.490943

>  <r_i_glide_evdw>  (316) 
-26.6971

>  <r_i_glide_ecoul>  (316) 
-4.45968

>  <r_i_glide_erotb>  (316) 
0.216834

>  <r_i_glide_esite>  (316) 
-0.100069

>  <r_i_glide_emodel>  (316) 
-35.9823

>  <r_i_glide_energy>  (316) 
-31.1568

>  <r_i_glide_einternal>  (316) 
0.238904

>  <r_i_glide_intrahb_reward>  (316) 
-0

>  <i_i_glide_confnum>  (316) 
5

>  <i_i_glide_posenum>  (316) 
12

>  <r_i_glide_eff_state_penalty>  (316) 
0

>  <ligand_id>  (316) 
95

>  <original_smiles>  (316) 
C=C1c2cn[nH]c2C(Cl)=C2C(C)=CC(Sc3nc4ccccc4s3)C(C)(C)N12

>  <smiles>  (316) 
[H]C1=C(C([H])([H])[H])c2c(Cl)c3c(c([H])nn3[H])c(C([H])([H])[H])[n+]2C(C([H])([H])[H])(C([H])([H])[H])C1([H])Sc1nc2c([H])c([H])c([H])c([H])c2s1

$$$$
95:0:2
     RDKit          3D

 48 52  0  0  1  0  0  0  0  0999 V2000
    0.1832   -6.5824    6.5206 C   0  0  0  0  0  0  0  0  0  0  0  0
    0.5629   -6.2950    5.0716 C   0  0  0  0  0  0  0  0  0  0  0  0
    0.0621   -7.1665    4.0670 C   0  0  0  0  0  0  0  0  0  0  0  0
   -0.8501   -8.2400    4.1258 C   0  0  0  0  0  0  0  0  0  0  0  0
   -1.0694   -8.7234    2.9130 N   0  0  0  0  0  0  0  0  0  0  0  0
   -0.2517   -7.9931    2.0852 N   0  0  0  0  0  0  0  0  0  0  0  0
    0.4814   -7.0117    2.7417 C   0  0  0  0  0  0  0  0  0  0  0  0
    1.4300   -6.0577    2.3933 C   0  0  0  0  0  0  0  0  0  0  0  0
    1.8219   -5.9020    0.7168 Cl  0  0  0  0  0  0  0  0  0  0  0  0
    1.9536   -5.2185    3.4122 C   0  0  0  0  0  0  0  0  0  0  0  0
    3.0600   -4.2588    3.1111 C   0  0  0  0  0  0  0  0  0  0  0  0
    4.1864   -4.6500    2.1706 C   0  0  0  0  0  0  0  0  0  0  0  0
    3.1146   -3.1033    3.7770 C   0  0  0  0  0  0  0  0  0  0  0  0
    2.1021   -2.8188    4.8380 C   0  0  1  0  0  0  0  0  0  0  0  0
    0.6198   -2.0483    4.0808 S   0  0  0  0  0  0  0  0  0  0  0  0
    1.2109   -0.3893    3.9832 C   0  0  0  0  0  0  0  0  0  0  0  0
    1.8772    0.1920    4.9874 N   0  0  0  0  0  0  0  0  0  0  0  0
    2.2568    1.4796    4.6343 C   0  0  0  0  0  0  0  0  0  0  0  0
    2.9985    2.3749    5.4328 C   0  0  0  0  0  0  0  0  0  0  0  0
    3.3078    3.6711    4.9812 C   0  0  0  0  0  0  0  0  0  0  0  0
    2.8805    4.0926    3.7083 C   0  0  0  0  0  0  0  0  0  0  0  0
    2.1534    3.2106    2.8851 C   0  0  0  0  0  0  0  0  0  0  0  0
    1.8437    1.9147    3.3431 C   0  0  0  0  0  0  0  0  0  0  0  0
    0.9492    0.6113    2.5424 S   0  0  0  0  0  0  0  0  0  0  0  0
    1.7989   -4.1215    5.6515 C   0  0  0  0  0  0  0  0  0  0  0  0
    3.0811   -4.5290    6.4275 C   0  0  0  0  0  0  0  0  0  0  0  0
    0.6971   -3.6960    6.6719 C   0  0  0  0  0  0  0  0  0  0  0  0
    1.4117   -5.2642    4.6961 N   0  0  0  0  0  0  0  0  0  0  0  0
   -0.1892   -8.2290    1.0995 H   0  0  0  0  0  0  0  0  0  0  0  0
   -0.0816   -7.6288    6.6645 H   0  0  0  0  0  0  0  0  0  0  0  0
   -0.6705   -5.9864    6.8369 H   0  0  0  0  0  0  0  0  0  0  0  0
   -1.3379   -8.6227    5.0075 H   0  0  0  0  0  0  0  0  0  0  0  0
    4.3957   -5.7165    2.2489 H   0  0  0  0  0  0  0  0  0  0  0  0
    5.1049   -4.1164    2.4190 H   0  0  0  0  0  0  0  0  0  0  0  0
    3.9431   -4.4082    1.1367 H   0  0  0  0  0  0  0  0  0  0  0  0
    3.8937   -2.3702    3.6110 H   0  0  0  0  0  0  0  0  0  0  0  0
    2.5773   -2.1346    5.5404 H   0  0  0  0  0  0  0  0  0  0  0  0
    3.3265    2.0511    6.4092 H   0  0  0  0  0  0  0  0  0  0  0  0
    3.8687    4.3412    5.6165 H   0  0  0  0  0  0  0  0  0  0  0  0
    3.1073    5.0873    3.3551 H   0  0  0  0  0  0  0  0  0  0  0  0
    1.8168    3.5246    1.9090 H   0  0  0  0  0  0  0  0  0  0  0  0
    3.4379   -3.7130    7.0611 H   0  0  0  0  0  0  0  0  0  0  0  0
    3.9014   -4.7843    5.7551 H   0  0  0  0  0  0  0  0  0  0  0  0
    2.9264   -5.3890    7.0758 H   0  0  0  0  0  0  0  0  0  0  0  0
    0.8578   -2.6722    7.0214 H   0  0  0  0  0  0  0  0  0  0  0  0
    0.6963   -4.2866    7.5857 H   0  0  0  0  0  0  0  0  0  0  0  0
   -0.3020   -3.7193    6.2332 H   0  0  0  0  0  0  0  0  0  0  0  0
    1.0121   -6.4124    7.2008 H   0  0  0  0  0  0  0  0  0  0  0  0
  1  2  1  0
  1 30  1  0
  1 31  1  0
  1 48  1  0
  2 28  2  0
  2  3  1  0
  3  7  2  0
  3  4  1  0
  4  5  2  0
  4 32  1  0
  5  6  1  0
  6 29  1  0
  6  7  1  0
  7  8  1  0
  8  9  1  0
  8 10  2  0
 10 28  1  0
 10 11  1  0
 11 12  1  0
 11 13  2  0
 12 33  1  0
 12 34  1  0
 12 35  1  0
 13 14  1  0
 13 36  1  0
 14 15  1  0
 14 25  1  0
 14 37  1  1
 15 16  1  0
 16 24  1  0
 16 17  2  0
 17 18  1  0
 18 23  2  0
 18 19  1  0
 19 20  2  0
 19 38  1  0
 20 21  1  0
 20 39  1  0
 21 22  2  0
 21 40  1  0
 22 23  1  0
 22 41  1  0
 23 24  1  0
 25 26  1  0
 25 27  1  0
 25 28  1  0
 26 42  1  0
 26 43  1  0
 26 44  1  0
 27 45  1  0
 27 46  1  0
 27 47  1  0
M  CHG  1  28   1
M  END
>  <i_m_ct_stereo_status>  (317) 
1

>  <s_m_source_file>  (317) 
/var/tmp/pbs.5076255.sched01/tmpmzi298dc/117y2go66iu.sdf

>  <i_m_source_file_index>  (317) 
12

>  <i_lp_mmshare_version>  (317) 
48012

>  <i_f3d_flags>  (317) 
0

>  <s_epik_input>  (317) 
W2NIXTFuW25IXWMoYzEyKUMoQ2wpPUMzTihDMj1bQ0gyXSlDKFtDSDNdKShbQ0gzXSlbQ0BASF0oW0NIXT1DM1tDSDNdKVNjKG40KXNjKGM0NSlbY0hdW2NIXVtjSF1bY0hdNQ==

>  <s_epik_cmdline>  (317) 
J2VwaWtfcHl0aG9uJywgJy1waHQnLCAnMi4wJywgJy1waCcsICc3LjAnLCAnLXRuJywgJzgnLCAnLW1hJywgJzIwMCcsICctaW1hZScsICc8aW5maWxlLm1hZT4nLCAnLW9tYWUnLCAnPG91dGZpbGUubWFlPic=

>  <r_lp_tautomer_probability>  (317) 
1

>  <r_epik_Ionization_Penalty>  (317) 
0.000207948

>  <r_epik_Ionization_Penalty_Charging>  (317) 
0

>  <r_epik_Ionization_Penalty_Neutral>  (317) 
0.000207948

>  <r_epik_State_Penalty>  (317) 
-0

>  <r_epik_Charging_Adjusted_Penalty>  (317) 
0

>  <i_epik_Tot_Q>  (317) 
1

>  <i_epik_Tot_abs_Q>  (317) 
1

>  <s_lp_Force_Field>  (317) 
OPLS3e

>  <r_lp_Energy>  (317) 
67.6071

>  <b_lp_Chiralities_Consistent>  (317) 
1

>  <s_lp_Variant>  (317) 
95:0-1

>  <s_i_glide_gridfile>  (317) 
pfpi4k_grid

>  <i_i_glide_lignum>  (317) 
12

>  <i_i_glide_rotatable_bonds>  (317) 
2

>  <r_i_docking_score>  (317) 
-2.35401

>  <r_i_glide_ligand_efficiency>  (317) 
-0.0840717

>  <r_i_glide_ligand_efficiency_sa>  (317) 
-0.255291

>  <r_i_glide_ligand_efficiency_ln>  (317) 
-0.543374

>  <r_i_glide_gscore>  (317) 
-2.35401

>  <r_i_glide_lipo>  (317) 
-0.0283616

>  <r_i_glide_hbond>  (317) 
-0.2363

>  <r_i_glide_metal>  (317) 
-0

>  <r_i_glide_rewards>  (317) 
-0.490943

>  <r_i_glide_evdw>  (317) 
-27.6707

>  <r_i_glide_ecoul>  (317) 
-2.42035

>  <r_i_glide_erotb>  (317) 
0.216834

>  <r_i_glide_esite>  (317) 
-0.0686504

>  <r_i_glide_emodel>  (317) 
-34.775

>  <r_i_glide_energy>  (317) 
-30.091

>  <r_i_glide_einternal>  (317) 
0.136146

>  <r_i_glide_intrahb_reward>  (317) 
-0

>  <i_i_glide_confnum>  (317) 
6

>  <i_i_glide_posenum>  (317) 
4

>  <r_i_glide_eff_state_penalty>  (317) 
0

>  <ligand_id>  (317) 
95

>  <original_smiles>  (317) 
C=C1c2cn[nH]c2C(Cl)=C2C(C)=CC(Sc3nc4ccccc4s3)C(C)(C)N12

>  <smiles>  (317) 
[H]C1=C(C([H])([H])[H])c2c(Cl)c3c(c([H])nn3[H])c(C([H])([H])[H])[n+]2C(C([H])([H])[H])(C([H])([H])[H])C1([H])Sc1nc2c([H])c([H])c([H])c([H])c2s1

$$$$
96:0:0
     RDKit          3D

104111  0  0  1  0  0  0  0  0999 V2000
   -1.6005   -0.2522    4.7474 C   0  0  0  0  0  0  0  0  0  0  0  0
   -0.9153    0.8833    4.9706 C   0  0  0  0  0  0  0  0  0  0  0  0
   -1.6063    2.2364    4.8465 C   0  0  0  0  0  0  0  0  0  0  0  0
    0.5541    0.9317    5.3930 C   0  0  2  0  0  0  0  0  0  0  0  0
    1.4296    1.7665    4.4537 C   0  0  0  0  0  0  0  0  0  0  0  0
    2.8043    1.9632    5.0816 C   0  0  0  0  0  0  0  0  0  0  0  0
    3.5615    0.6552    5.4212 C   0  0  2  0  0  0  0  0  0  0  0  0
    4.8016    1.1348    6.2173 C   0  0  0  0  0  0  0  0  0  0  0  0
    4.0049   -0.0314    4.1228 C   0  0  0  0  0  0  0  0  0  0  0  0
    4.8392   -1.2865    4.4014 C   0  0  0  0  0  0  0  0  0  0  0  0
    4.3190   -2.3440    5.4434 C   0  0  2  0  0  0  0  0  0  0  0  0
    5.6778   -2.7936    6.0983 C   0  0  0  0  0  0  0  0  0  0  0  0
    3.7847   -3.6711    4.7244 C   0  0  2  0  0  0  0  0  0  0  0  0
    2.5983   -3.6248    3.7342 C   0  0  1  0  0  0  0  0  0  0  0  0
    2.6223   -2.5602    2.8117 O   0  0  0  0  0  0  0  0  0  0  0  0
    2.6169   -4.8805    2.8564 C   0  0  0  0  0  0  0  0  0  0  0  0
    2.9567   -6.2307    3.5618 C   0  0  1  0  0  0  0  0  0  0  0  0
    2.8395   -6.1676    5.1378 C   0  0  2  0  0  0  0  0  0  0  0  0
    3.7345   -7.2253    5.8171 C   0  0  0  0  0  0  0  0  0  0  0  0
    1.3448   -6.4814    5.5003 C   0  0  0  0  0  0  0  0  0  0  0  0
    0.8868   -7.9057    5.8467 C   0  0  1  0  0  0  0  0  0  0  0  0
   -0.0724   -8.6022    4.8752 C   0  0  2  0  0  0  0  0  0  0  0  0
    1.0716   -9.4019    5.4237 C   0  0  1  0  0  0  0  0  0  0  0  0
    1.9777  -10.2996    4.5745 C   0  0  0  0  0  0  0  0  0  0  0  0
    3.2465  -10.7945    5.3309 C   0  0  0  0  0  0  0  0  0  0  0  0
    1.1994  -11.6034    4.3446 C   0  0  0  0  0  0  0  0  0  0  0  0
    2.1862   -9.9290    3.2069 O   0  0  0  0  0  0  0  0  0  0  0  0
    3.0304   -8.8291    2.8588 C   0  0  1  0  0  0  0  0  0  0  0  0
    4.3798   -8.8997    3.3229 O   0  0  0  0  0  0  0  0  0  0  0  0
    2.9826   -8.6751    1.3508 C   0  0  0  0  0  0  0  0  0  0  0  0
    2.6673   -7.3019    1.4623 O   0  0  0  0  0  0  0  0  0  0  0  0
    2.2879   -7.4682    2.8373 C   0  0  2  0  0  0  0  0  0  0  0  0
    0.7186   -7.3651    2.6307 C   0  0  0  0  0  0  0  0  0  0  0  0
   -0.3623   -8.2022    3.4272 C   0  0  0  0  0  0  0  0  0  0  0  0
   -0.7863   -9.4216    2.5799 C   0  0  0  0  0  0  0  0  0  0  0  0
   -1.6422   -7.3418    3.4754 C   0  0  0  0  0  0  0  0  0  0  0  0
    3.4467   -4.8107    5.7320 C   0  0  2  0  0  0  0  0  0  0  0  0
    2.7860   -4.2370    6.9965 C   0  0  0  0  0  0  0  0  0  0  0  0
    2.6898   -4.8926    8.0361 O   0  0  0  0  0  0  0  0  0  0  0  0
    2.2453   -2.8148    6.9107 C   0  0  0  0  0  0  0  0  0  0  0  0
    3.3384   -1.7491    6.5778 C   0  0  1  0  0  0  0  0  0  0  0  0
    4.0293   -1.5406    7.9674 C   0  0  0  0  0  0  0  0  0  0  0  0
    2.6612   -0.3485    6.2135 C   0  0  2  0  0  0  0  0  0  0  0  0
    1.2357   -0.4466    5.5932 C   0  0  0  0  0  0  0  0  0  0  0  0
   -2.6437   -0.2162    4.4760 H   0  0  0  0  0  0  0  0  0  0  0  0
   -1.1529   -1.2320    4.8241 H   0  0  0  0  0  0  0  0  0  0  0  0
   -1.5266    2.7916    5.7812 H   0  0  0  0  0  0  0  0  0  0  0  0
   -2.6602    2.1339    4.6030 H   0  0  0  0  0  0  0  0  0  0  0  0
   -1.1681    2.8380    4.0499 H   0  0  0  0  0  0  0  0  0  0  0  0
    0.5410    1.4275    6.3653 H   0  0  0  0  0  0  0  0  0  0  0  0
    1.4980    1.2991    3.4688 H   0  0  0  0  0  0  0  0  0  0  0  0
    1.0094    2.7587    4.2861 H   0  0  0  0  0  0  0  0  0  0  0  0
    3.4067    2.5942    4.4234 H   0  0  0  0  0  0  0  0  0  0  0  0
    2.6684    2.5434    5.9980 H   0  0  0  0  0  0  0  0  0  0  0  0
    5.5405    0.3589    6.3870 H   0  0  0  0  0  0  0  0  0  0  0  0
    4.5120    1.5285    7.1907 H   0  0  0  0  0  0  0  0  0  0  0  0
    5.3254    1.9289    5.6867 H   0  0  0  0  0  0  0  0  0  0  0  0
    3.1399   -0.2742    3.5162 H   0  0  0  0  0  0  0  0  0  0  0  0
    4.5852    0.6561    3.5132 H   0  0  0  0  0  0  0  0  0  0  0  0
    5.0245   -1.7863    3.4419 H   0  0  0  0  0  0  0  0  0  0  0  0
    5.8213   -0.9236    4.6605 H   0  0  0  0  0  0  0  0  0  0  0  0
    5.5682   -3.5180    6.9042 H   0  0  0  0  0  0  0  0  0  0  0  0
    6.2435   -1.9604    6.5190 H   0  0  0  0  0  0  0  0  0  0  0  0
    6.3349   -3.2584    5.3639 H   0  0  0  0  0  0  0  0  0  0  0  0
    4.6279   -4.0191    4.1316 H   0  0  0  0  0  0  0  0  0  0  0  0
    1.6458   -3.5971    4.2556 H   0  0  0  0  0  0  0  0  0  0  0  0
    1.8510   -2.5735    2.2910 H   0  0  0  0  0  0  0  0  0  0  0  0
    1.7270   -4.9040    2.2507 H   0  0  0  0  0  0  0  0  0  0  0  0
    3.4015   -4.7503    2.0947 H   0  0  0  0  0  0  0  0  0  0  0  0
    4.0225   -6.3371    3.4021 H   0  0  0  0  0  0  0  0  0  0  0  0
    3.7655   -7.1189    6.9032 H   0  0  0  0  0  0  0  0  0  0  0  0
    4.7675   -7.1733    5.4525 H   0  0  0  0  0  0  0  0  0  0  0  0
    3.3815   -8.2137    5.6141 H   0  0  0  0  0  0  0  0  0  0  0  0
    1.0461   -5.9328    6.3816 H   0  0  0  0  0  0  0  0  0  0  0  0
    0.6751   -6.0247    4.7783 H   0  0  0  0  0  0  0  0  0  0  0  0
    0.5429   -7.8958    6.8852 H   0  0  0  0  0  0  0  0  0  0  0  0
   -1.0061   -8.9209    5.3507 H   0  0  0  0  0  0  0  0  0  0  0  0
    0.7773  -10.0107    6.2772 H   0  0  0  0  0  0  0  0  0  0  0  0
    2.9801  -11.1225    6.3383 H   0  0  0  0  0  0  0  0  0  0  0  0
    4.0592  -10.0895    5.4535 H   0  0  0  0  0  0  0  0  0  0  0  0
    3.6835  -11.6623    4.8331 H   0  0  0  0  0  0  0  0  0  0  0  0
    1.0530  -12.1552    5.2707 H   0  0  0  0  0  0  0  0  0  0  0  0
    1.7415  -12.2545    3.6603 H   0  0  0  0  0  0  0  0  0  0  0  0
    0.2121  -11.4555    3.9279 H   0  0  0  0  0  0  0  0  0  0  0  0
    4.7019   -9.6967    2.9541 H   0  0  0  0  0  0  0  0  0  0  0  0
    3.9451   -8.8666    0.8613 H   0  0  0  0  0  0  0  0  0  0  0  0
    2.1949   -9.2664    0.8670 H   0  0  0  0  0  0  0  0  0  0  0  0
    0.3975   -6.3345    2.7105 H   0  0  0  0  0  0  0  0  0  0  0  0
    0.4856   -7.5646    1.5860 H   0  0  0  0  0  0  0  0  0  0  0  0
   -1.3197   -9.1220    1.6785 H   0  0  0  0  0  0  0  0  0  0  0  0
   -1.4579  -10.0694    3.1398 H   0  0  0  0  0  0  0  0  0  0  0  0
    0.0528  -10.0227    2.2365 H   0  0  0  0  0  0  0  0  0  0  0  0
   -1.9412   -7.0020    2.4831 H   0  0  0  0  0  0  0  0  0  0  0  0
   -1.5191   -6.4623    4.1092 H   0  0  0  0  0  0  0  0  0  0  0  0
   -2.4904   -7.9016    3.8732 H   0  0  0  0  0  0  0  0  0  0  0  0
    4.4274   -5.0866    6.1129 H   0  0  0  0  0  0  0  0  0  0  0  0
    1.4745   -2.8557    6.1499 H   0  0  0  0  0  0  0  0  0  0  0  0
    1.7309   -2.5647    7.8370 H   0  0  0  0  0  0  0  0  0  0  0  0
    3.3300   -1.1313    8.6999 H   0  0  0  0  0  0  0  0  0  0  0  0
    4.8763   -0.8628    7.9595 H   0  0  0  0  0  0  0  0  0  0  0  0
    4.3836   -2.4669    8.4191 H   0  0  0  0  0  0  0  0  0  0  0  0
    2.4553    0.1493    7.1637 H   0  0  0  0  0  0  0  0  0  0  0  0
    0.5875   -1.0061    6.2636 H   0  0  0  0  0  0  0  0  0  0  0  0
    1.2649   -0.9829    4.6427 H   0  0  0  0  0  0  0  0  0  0  0  0
  1  2  2  0
  1 45  1  0
  1 46  1  0
  2  3  1  0
  2  4  1  0
  3 47  1  0
  3 48  1  0
  3 49  1  0
  4 44  1  0
  4  5  1  0
  4 50  1  1
  5  6  1  0
  5 51  1  0
  5 52  1  0
  6  7  1  0
  6 53  1  0
  6 54  1  0
  7 43  1  0
  7  8  1  1
  7  9  1  0
  8 55  1  0
  8 56  1  0
  8 57  1  0
  9 10  1  0
  9 58  1  0
  9 59  1  0
 10 11  1  0
 10 60  1  0
 10 61  1  0
 11 41  1  0
 11 12  1  1
 11 13  1  0
 12 62  1  0
 12 63  1  0
 12 64  1  0
 13 37  1  0
 13 14  1  0
 13 65  1  6
 14 15  1  0
 14 16  1  0
 14 66  1  1
 15 67  1  0
 16 17  1  0
 16 68  1  0
 16 69  1  0
 17 32  1  0
 17 18  1  0
 17 70  1  1
 18 19  1  1
 18 20  1  0
 18 37  1  0
 19 71  1  0
 19 72  1  0
 19 73  1  0
 20 21  1  0
 20 74  1  0
 20 75  1  0
 21 23  1  0
 21 22  1  0
 21 76  1  1
 22 34  1  0
 22 23  1  0
 22 77  1  1
 23 24  1  0
 23 78  1  1
 24 25  1  0
 24 26  1  0
 24 27  1  0
 25 79  1  0
 25 80  1  0
 25 81  1  0
 26 82  1  0
 26 83  1  0
 26 84  1  0
 27 28  1  0
 28 32  1  0
 28 29  1  1
 28 30  1  0
 29 85  1  0
 30 31  1  0
 30 86  1  0
 30 87  1  0
 32 31  1  6
 32 33  1  0
 33 34  1  0
 33 88  1  0
 33 89  1  0
 34 35  1  0
 34 36  1  0
 35 90  1  0
 35 91  1  0
 35 92  1  0
 36 93  1  0
 36 94  1  0
 36 95  1  0
 37 38  1  0
 37 96  1  1
 38 39  2  0
 38 40  1  0
 40 41  1  0
 40 97  1  0
 40 98  1  0
 41 42  1  1
 41 43  1  0
 42 99  1  0
 42100  1  0
 42101  1  0
 43 44  1  0
 43102  1  1
 44103  1  0
 44104  1  0
M  END
>  <i_m_ct_stereo_status>  (318) 
1

>  <s_m_source_file>  (318) 
/var/tmp/pbs.5076255.sched01/tmpmzi298dc/117y2go66iu.sdf

>  <i_m_source_file_index>  (318) 
13

>  <i_lp_mmshare_version>  (318) 
48012

>  <i_f3d_flags>  (318) 
0

>  <s_epik_input>  (318) 
W0NIMl09QyhbQ0gzXSlbQ0BASF0oW0NIMl0xKVtDSDJdW0NIMl1bQ0BdKFtDSDNdKShbQ0gyXVtDSDJdMilbQ0BASF0xW0NAQF0oW0NIM10pKFtDSDJdQzM9TylbQ0BAXTIoW0NIM10pW0NASF0oW0NAQEhdKFtPSF0pW0NIMl00KVtDQEBIXTNbQ0BAXShbQ0BIXTRbQ0BdNTY3KShbQ0gzXSlbQ0gyXVtDQEhdOFtDQEBIXShDKFtDSDJdNykoW0NIM10pW0NIM10pW0NASF04QyhbQ0gzXSkoW0NIM10pT1tDQEBdNShbT0hdKVtDSDJdTzY=

>  <s_epik_cmdline>  (318) 
J2VwaWtfcHl0aG9uJywgJy1waHQnLCAnMi4wJywgJy1waCcsICc3LjAnLCAnLXRuJywgJzgnLCAnLW1hJywgJzIwMCcsICctaW1hZScsICc8aW5maWxlLm1hZT4nLCAnLW9tYWUnLCAnPG91dGZpbGUubWFlPic=

>  <r_lp_tautomer_probability>  (318) 
1

>  <r_epik_Ionization_Penalty>  (318) 
6.5771e-06

>  <r_epik_Ionization_Penalty_Charging>  (318) 
0

>  <r_epik_Ionization_Penalty_Neutral>  (318) 
6.5771e-06

>  <r_epik_State_Penalty>  (318) 
-0

>  <r_epik_Charging_Adjusted_Penalty>  (318) 
0

>  <i_epik_Tot_Q>  (318) 
0

>  <i_epik_Tot_abs_Q>  (318) 
0

>  <s_lp_Force_Field>  (318) 
OPLS3e

>  <r_lp_Energy>  (318) 
173.219

>  <b_lp_Chiralities_Consistent>  (318) 
1

>  <s_lp_Variant>  (318) 
96:0-1

>  <s_i_glide_gridfile>  (318) 
pfpi4k_grid

>  <i_i_glide_lignum>  (318) 
13

>  <i_i_glide_rotatable_bonds>  (318) 
3

>  <r_i_docking_score>  (318) 
-2.27344

>  <r_i_glide_ligand_efficiency>  (318) 
-0.051669

>  <r_i_glide_ligand_efficiency_sa>  (318) 
-0.18241

>  <r_i_glide_ligand_efficiency_ln>  (318) 
-0.475198

>  <r_i_glide_gscore>  (318) 
-2.27344

>  <r_i_glide_lipo>  (318) 
-0.273521

>  <r_i_glide_hbond>  (318) 
0

>  <r_i_glide_metal>  (318) 
-0

>  <r_i_glide_rewards>  (318) 
0

>  <r_i_glide_evdw>  (318) 
-35.126

>  <r_i_glide_ecoul>  (318) 
-1.93554

>  <r_i_glide_erotb>  (318) 
0.0567607

>  <r_i_glide_esite>  (318) 
-0.0100446

>  <r_i_glide_emodel>  (318) 
-41.6046

>  <r_i_glide_energy>  (318) 
-37.0615

>  <r_i_glide_einternal>  (318) 
0.750191

>  <r_i_glide_intrahb_reward>  (318) 
-0

>  <i_i_glide_confnum>  (318) 
1

>  <i_i_glide_posenum>  (318) 
1

>  <r_i_glide_eff_state_penalty>  (318) 
0

>  <ligand_id>  (318) 
96

>  <original_smiles>  (318) 
C=C(C)C1CCC2(C)CCC3(C)C4C(O)CC5C(C)(CC6C7C6C(C)(C)OC6(O)COC56CC7(C)C)C4C(=O)CC3(C)C2C1

>  <smiles>  (318) 
[H]OC1([H])C([H])([H])C2([H])C34OC([H])([H])C3(O[H])OC(C([H])([H])[H])(C([H])([H])[H])C3([H])C([H])(C([H])([H])C2(C([H])([H])[H])C2([H])C(=O)C([H])([H])C5(C([H])([H])[H])C6([H])C([H])([H])C([H])(C(=C([H])[H])C([H])([H])[H])C([H])([H])C([H])([H])C6(C([H])([H])[H])C([H])([H])C([H])([H])C5(C([H])([H])[H])C12[H])C3([H])C(C([H])([H])[H])(C([H])([H])[H])C4([H])[H]

$$$$
96:0:1
     RDKit          3D

104111  0  0  1  0  0  0  0  0999 V2000
   -1.2988    1.6630    3.4163 C   0  0  0  0  0  0  0  0  0  0  0  0
   -0.8195    0.9416    4.4511 C   0  0  0  0  0  0  0  0  0  0  0  0
   -1.7506    0.0611    5.2661 C   0  0  0  0  0  0  0  0  0  0  0  0
    0.6390    1.0011    4.9218 C   0  0  2  0  0  0  0  0  0  0  0  0
    1.5774    1.7903    4.0008 C   0  0  0  0  0  0  0  0  0  0  0  0
    2.9302    1.9691    4.6636 C   0  0  0  0  0  0  0  0  0  0  0  0
    3.6361    0.6550    5.0707 C   0  0  2  0  0  0  0  0  0  0  0  0
    4.8586    1.1341    5.8933 C   0  0  0  0  0  0  0  0  0  0  0  0
    4.0979   -0.0966    3.8146 C   0  0  0  0  0  0  0  0  0  0  0  0
    4.8920   -1.3552    4.1718 C   0  0  0  0  0  0  0  0  0  0  0  0
    4.3163   -2.3580    5.2368 C   0  0  2  0  0  0  0  0  0  0  0  0
    5.6407   -2.8092    5.9620 C   0  0  0  0  0  0  0  0  0  0  0  0
    3.7809   -3.6994    4.5511 C   0  0  2  0  0  0  0  0  0  0  0  0
    2.6331   -3.6616    3.5148 C   0  0  1  0  0  0  0  0  0  0  0  0
    2.6716   -2.6207    2.5697 O   0  0  0  0  0  0  0  0  0  0  0  0
    2.6475   -4.9546    2.6917 C   0  0  0  0  0  0  0  0  0  0  0  0
    2.9304   -6.2810    3.4625 C   0  0  1  0  0  0  0  0  0  0  0  0
    2.7610   -6.1548    5.0303 C   0  0  2  0  0  0  0  0  0  0  0  0
    3.6079   -7.2056    5.7806 C   0  0  0  0  0  0  0  0  0  0  0  0
    1.2486   -6.4216    5.3537 C   0  0  0  0  0  0  0  0  0  0  0  0
    0.7482   -7.8214    5.7396 C   0  0  1  0  0  0  0  0  0  0  0  0
   -0.1926   -8.5338    4.7633 C   0  0  2  0  0  0  0  0  0  0  0  0
    0.9109   -9.3364    5.3806 C   0  0  1  0  0  0  0  0  0  0  0  0
    1.8227  -10.2813    4.5970 C   0  0  0  0  0  0  0  0  0  0  0  0
    3.0520  -10.7739    5.4149 C   0  0  0  0  0  0  0  0  0  0  0  0
    1.0197  -11.5728    4.3747 C   0  0  0  0  0  0  0  0  0  0  0  0
    2.0847   -9.9732    3.2243 O   0  0  0  0  0  0  0  0  0  0  0  0
    2.9657   -8.9086    2.8615 C   0  0  1  0  0  0  0  0  0  0  0  0
    4.2979   -8.9906    3.3750 O   0  0  0  0  0  0  0  0  0  0  0  0
    2.9743   -8.8125    1.3461 C   0  0  0  0  0  0  0  0  0  0  0  0
    2.6870   -7.4277    1.3948 O   0  0  0  0  0  0  0  0  0  0  0  0
    2.2582   -7.5352    2.7609 C   0  0  2  0  0  0  0  0  0  0  0  0
    0.6957   -7.4054    2.5001 C   0  0  0  0  0  0  0  0  0  0  0  0
   -0.4275   -8.1868    3.2951 C   0  0  0  0  0  0  0  0  0  0  0  0
   -0.8618   -9.4259    2.4809 C   0  0  0  0  0  0  0  0  0  0  0  0
   -1.6855   -7.2986    3.2756 C   0  0  0  0  0  0  0  0  0  0  0  0
    3.3801   -4.7888    5.5916 C   0  0  2  0  0  0  0  0  0  0  0  0
    2.6895   -4.1519    6.8093 C   0  0  0  0  0  0  0  0  0  0  0  0
    2.5439   -4.7629    7.8704 O   0  0  0  0  0  0  0  0  0  0  0  0
    2.1860   -2.7236    6.6496 C   0  0  0  0  0  0  0  0  0  0  0  0
    3.3155   -1.6957    6.3112 C   0  0  1  0  0  0  0  0  0  0  0  0
    3.9638   -1.4470    7.7164 C   0  0  0  0  0  0  0  0  0  0  0  0
    2.6872   -0.2963    5.8656 C   0  0  2  0  0  0  0  0  0  0  0  0
    1.2847   -0.3855    5.1908 C   0  0  0  0  0  0  0  0  0  0  0  0
   -2.3416    1.6379    3.1548 H   0  0  0  0  0  0  0  0  0  0  0  0
   -0.6865    2.3070    2.8007 H   0  0  0  0  0  0  0  0  0  0  0  0
   -1.4467   -0.9849    5.2489 H   0  0  0  0  0  0  0  0  0  0  0  0
   -2.7502    0.0776    4.8546 H   0  0  0  0  0  0  0  0  0  0  0  0
   -1.7893    0.4089    6.2968 H   0  0  0  0  0  0  0  0  0  0  0  0
    0.5955    1.5295    5.8748 H   0  0  0  0  0  0  0  0  0  0  0  0
    1.6658    1.2899    3.0319 H   0  0  0  0  0  0  0  0  0  0  0  0
    1.1856    2.7904    3.8001 H   0  0  0  0  0  0  0  0  0  0  0  0
    3.5672    2.5596    3.9999 H   0  0  0  0  0  0  0  0  0  0  0  0
    2.7769    2.5871    5.5513 H   0  0  0  0  0  0  0  0  0  0  0  0
    5.5743    0.3511    6.1185 H   0  0  0  0  0  0  0  0  0  0  0  0
    4.5435    1.5736    6.8395 H   0  0  0  0  0  0  0  0  0  0  0  0
    5.4136    1.8967    5.3499 H   0  0  0  0  0  0  0  0  0  0  0  0
    3.2453   -0.3340    3.1878 H   0  0  0  0  0  0  0  0  0  0  0  0
    4.7211    0.5435    3.1980 H   0  0  0  0  0  0  0  0  0  0  0  0
    5.1098   -1.8971    3.2433 H   0  0  0  0  0  0  0  0  0  0  0  0
    5.8620   -0.9924    4.4616 H   0  0  0  0  0  0  0  0  0  0  0  0
    5.4887   -3.5004    6.7908 H   0  0  0  0  0  0  0  0  0  0  0  0
    6.2132   -1.9710    6.3646 H   0  0  0  0  0  0  0  0  0  0  0  0
    6.3137   -3.3213    5.2777 H   0  0  0  0  0  0  0  0  0  0  0  0
    4.6387   -4.0928    4.0094 H   0  0  0  0  0  0  0  0  0  0  0  0
    1.6665   -3.6054    4.0106 H   0  0  0  0  0  0  0  0  0  0  0  0
    3.4916   -2.6251    2.1242 H   0  0  0  0  0  0  0  0  0  0  0  0
    1.7740   -4.9778    2.0619 H   0  0  0  0  0  0  0  0  0  0  0  0
    3.4574   -4.8764    1.9485 H   0  0  0  0  0  0  0  0  0  0  0  0
    3.9986   -6.4228    3.3443 H   0  0  0  0  0  0  0  0  0  0  0  0
    3.6059   -7.0553    6.8630 H   0  0  0  0  0  0  0  0  0  0  0  0
    4.6537   -7.1905    5.4490 H   0  0  0  0  0  0  0  0  0  0  0  0
    3.2379   -8.1937    5.6041 H   0  0  0  0  0  0  0  0  0  0  0  0
    0.9323   -5.8311    6.2006 H   0  0  0  0  0  0  0  0  0  0  0  0
    0.6142   -5.9802    4.5902 H   0  0  0  0  0  0  0  0  0  0  0  0
    0.3671   -7.7612    6.7625 H   0  0  0  0  0  0  0  0  0  0  0  0
   -1.1501   -8.8052    5.2218 H   0  0  0  0  0  0  0  0  0  0  0  0
    0.5719   -9.9052    6.2443 H   0  0  0  0  0  0  0  0  0  0  0  0
    2.7389  -11.0457    6.4247 H   0  0  0  0  0  0  0  0  0  0  0  0
    3.8784  -10.0851    5.5352 H   0  0  0  0  0  0  0  0  0  0  0  0
    3.4813  -11.6758    4.9783 H   0  0  0  0  0  0  0  0  0  0  0  0
    0.8116  -12.0980    5.2972 H   0  0  0  0  0  0  0  0  0  0  0  0
    1.5789  -12.2516    3.7429 H   0  0  0  0  0  0  0  0  0  0  0  0
    0.0513  -11.4192    3.9163 H   0  0  0  0  0  0  0  0  0  0  0  0
    4.6229   -9.7953    3.0267 H   0  0  0  0  0  0  0  0  0  0  0  0
    3.9493   -9.0469    0.9022 H   0  0  0  0  0  0  0  0  0  0  0  0
    2.1944   -9.4073    0.8516 H   0  0  0  0  0  0  0  0  0  0  0  0
    0.4004   -6.3672    2.5277 H   0  0  0  0  0  0  0  0  0  0  0  0
    0.4949   -7.6416    1.4574 H   0  0  0  0  0  0  0  0  0  0  0  0
   -1.3647   -9.1465    1.5512 H   0  0  0  0  0  0  0  0  0  0  0  0
   -1.5665  -10.0343    3.0409 H   0  0  0  0  0  0  0  0  0  0  0  0
   -0.0257  -10.0589    2.1848 H   0  0  0  0  0  0  0  0  0  0  0  0
   -1.9321   -6.9863    2.2644 H   0  0  0  0  0  0  0  0  0  0  0  0
   -1.5582   -6.4009    3.8828 H   0  0  0  0  0  0  0  0  0  0  0  0
   -2.5631   -7.8193    3.6636 H   0  0  0  0  0  0  0  0  0  0  0  0
    4.3390   -5.0751    6.0192 H   0  0  0  0  0  0  0  0  0  0  0  0
    1.4421   -2.7804    5.8632 H   0  0  0  0  0  0  0  0  0  0  0  0
    1.6461   -2.4243    7.5459 H   0  0  0  0  0  0  0  0  0  0  0  0
    3.2498   -0.9925    8.4069 H   0  0  0  0  0  0  0  0  0  0  0  0
    4.8265   -0.7893    7.7108 H   0  0  0  0  0  0  0  0  0  0  0  0
    4.2803   -2.3622    8.2156 H   0  0  0  0  0  0  0  0  0  0  0  0
    2.4576    0.2434    6.7871 H   0  0  0  0  0  0  0  0  0  0  0  0
    0.6300   -0.9105    5.8758 H   0  0  0  0  0  0  0  0  0  0  0  0
    1.3220   -0.9607    4.2642 H   0  0  0  0  0  0  0  0  0  0  0  0
  1  2  2  0
  1 45  1  0
  1 46  1  0
  2  3  1  0
  2  4  1  0
  3 47  1  0
  3 48  1  0
  3 49  1  0
  4 44  1  0
  4  5  1  0
  4 50  1  1
  5  6  1  0
  5 51  1  0
  5 52  1  0
  6  7  1  0
  6 53  1  0
  6 54  1  0
  7 43  1  0
  7  8  1  1
  7  9  1  0
  8 55  1  0
  8 56  1  0
  8 57  1  0
  9 10  1  0
  9 58  1  0
  9 59  1  0
 10 11  1  0
 10 60  1  0
 10 61  1  0
 11 41  1  0
 11 12  1  1
 11 13  1  0
 12 62  1  0
 12 63  1  0
 12 64  1  0
 13 37  1  0
 13 14  1  0
 13 65  1  6
 14 15  1  0
 14 16  1  0
 14 66  1  1
 15 67  1  0
 16 17  1  0
 16 68  1  0
 16 69  1  0
 17 32  1  0
 17 18  1  0
 17 70  1  1
 18 19  1  1
 18 20  1  0
 18 37  1  0
 19 71  1  0
 19 72  1  0
 19 73  1  0
 20 21  1  0
 20 74  1  0
 20 75  1  0
 21 23  1  0
 21 22  1  0
 21 76  1  1
 22 34  1  0
 22 23  1  0
 22 77  1  1
 23 24  1  0
 23 78  1  1
 24 25  1  0
 24 26  1  0
 24 27  1  0
 25 79  1  0
 25 80  1  0
 25 81  1  0
 26 82  1  0
 26 83  1  0
 26 84  1  0
 27 28  1  0
 28 32  1  0
 28 29  1  1
 28 30  1  0
 29 85  1  0
 30 31  1  0
 30 86  1  0
 30 87  1  0
 32 31  1  6
 32 33  1  0
 33 34  1  0
 33 88  1  0
 33 89  1  0
 34 35  1  0
 34 36  1  0
 35 90  1  0
 35 91  1  0
 35 92  1  0
 36 93  1  0
 36 94  1  0
 36 95  1  0
 37 38  1  0
 37 96  1  1
 38 39  2  0
 38 40  1  0
 40 41  1  0
 40 97  1  0
 40 98  1  0
 41 42  1  1
 41 43  1  0
 42 99  1  0
 42100  1  0
 42101  1  0
 43 44  1  0
 43102  1  1
 44103  1  0
 44104  1  0
M  END
>  <i_m_ct_stereo_status>  (319) 
1

>  <s_m_source_file>  (319) 
/var/tmp/pbs.5076255.sched01/tmpmzi298dc/117y2go66iu.sdf

>  <i_m_source_file_index>  (319) 
13

>  <i_lp_mmshare_version>  (319) 
48012

>  <i_f3d_flags>  (319) 
0

>  <s_epik_input>  (319) 
W0NIMl09QyhbQ0gzXSlbQ0BASF0oW0NIMl0xKVtDSDJdW0NIMl1bQ0BdKFtDSDNdKShbQ0gyXVtDSDJdMilbQ0BASF0xW0NAQF0oW0NIM10pKFtDSDJdQzM9TylbQ0BAXTIoW0NIM10pW0NASF0oW0NAQEhdKFtPSF0pW0NIMl00KVtDQEBIXTNbQ0BAXShbQ0BIXTRbQ0BdNTY3KShbQ0gzXSlbQ0gyXVtDQEhdOFtDQEBIXShDKFtDSDJdNykoW0NIM10pW0NIM10pW0NASF04QyhbQ0gzXSkoW0NIM10pT1tDQEBdNShbT0hdKVtDSDJdTzY=

>  <s_epik_cmdline>  (319) 
J2VwaWtfcHl0aG9uJywgJy1waHQnLCAnMi4wJywgJy1waCcsICc3LjAnLCAnLXRuJywgJzgnLCAnLW1hJywgJzIwMCcsICctaW1hZScsICc8aW5maWxlLm1hZT4nLCAnLW9tYWUnLCAnPG91dGZpbGUubWFlPic=

>  <r_lp_tautomer_probability>  (319) 
1

>  <r_epik_Ionization_Penalty>  (319) 
6.5771e-06

>  <r_epik_Ionization_Penalty_Charging>  (319) 
0

>  <r_epik_Ionization_Penalty_Neutral>  (319) 
6.5771e-06

>  <r_epik_State_Penalty>  (319) 
-0

>  <r_epik_Charging_Adjusted_Penalty>  (319) 
0

>  <i_epik_Tot_Q>  (319) 
0

>  <i_epik_Tot_abs_Q>  (319) 
0

>  <s_lp_Force_Field>  (319) 
OPLS3e

>  <r_lp_Energy>  (319) 
173.219

>  <b_lp_Chiralities_Consistent>  (319) 
1

>  <s_lp_Variant>  (319) 
96:0-1

>  <s_i_glide_gridfile>  (319) 
pfpi4k_grid

>  <i_i_glide_lignum>  (319) 
13

>  <i_i_glide_rotatable_bonds>  (319) 
3

>  <r_i_docking_score>  (319) 
-2.08127

>  <r_i_glide_ligand_efficiency>  (319) 
-0.0473016

>  <r_i_glide_ligand_efficiency_sa>  (319) 
-0.166991

>  <r_i_glide_ligand_efficiency_ln>  (319) 
-0.435031

>  <r_i_glide_gscore>  (319) 
-2.08127

>  <r_i_glide_lipo>  (319) 
-0.350444

>  <r_i_glide_hbond>  (319) 
0

>  <r_i_glide_metal>  (319) 
-0

>  <r_i_glide_rewards>  (319) 
0

>  <r_i_glide_evdw>  (319) 
-34.753

>  <r_i_glide_ecoul>  (319) 
-0.265191

>  <r_i_glide_erotb>  (319) 
0.0567607

>  <r_i_glide_esite>  (319) 
-0.0101546

>  <r_i_glide_emodel>  (319) 
-38.4863

>  <r_i_glide_energy>  (319) 
-35.0182

>  <r_i_glide_einternal>  (319) 
1.60141

>  <r_i_glide_intrahb_reward>  (319) 
-0

>  <i_i_glide_confnum>  (319) 
3

>  <i_i_glide_posenum>  (319) 
24

>  <r_i_glide_eff_state_penalty>  (319) 
0

>  <ligand_id>  (319) 
96

>  <original_smiles>  (319) 
C=C(C)C1CCC2(C)CCC3(C)C4C(O)CC5C(C)(CC6C7C6C(C)(C)OC6(O)COC56CC7(C)C)C4C(=O)CC3(C)C2C1

>  <smiles>  (319) 
[H]OC1([H])C([H])([H])C2([H])C34OC([H])([H])C3(O[H])OC(C([H])([H])[H])(C([H])([H])[H])C3([H])C([H])(C([H])([H])C2(C([H])([H])[H])C2([H])C(=O)C([H])([H])C5(C([H])([H])[H])C6([H])C([H])([H])C([H])(C(=C([H])[H])C([H])([H])[H])C([H])([H])C([H])([H])C6(C([H])([H])[H])C([H])([H])C([H])([H])C5(C([H])([H])[H])C12[H])C3([H])C(C([H])([H])[H])(C([H])([H])[H])C4([H])[H]

$$$$
96:0:2
     RDKit          3D

104111  0  0  1  0  0  0  0  0999 V2000
   -1.8665   -0.2679    4.7671 C   0  0  0  0  0  0  0  0  0  0  0  0
   -1.1607    0.8838    4.8252 C   0  0  0  0  0  0  0  0  0  0  0  0
   -1.8216    2.2102    4.4740 C   0  0  0  0  0  0  0  0  0  0  0  0
    0.3033    0.9652    5.2653 C   0  0  2  0  0  0  0  0  0  0  0  0
    1.1839    1.8081    4.3316 C   0  0  0  0  0  0  0  0  0  0  0  0
    2.5425    2.0369    4.9791 C   0  0  0  0  0  0  0  0  0  0  0  0
    3.3194    0.7482    5.3398 C   0  0  2  0  0  0  0  0  0  0  0  0
    4.5373    1.2595    6.1502 C   0  0  0  0  0  0  0  0  0  0  0  0
    3.7954    0.0618    4.0534 C   0  0  0  0  0  0  0  0  0  0  0  0
    4.6532   -1.1744    4.3548 C   0  0  0  0  0  0  0  0  0  0  0  0
    4.1375   -2.2327    5.4006 C   0  0  2  0  0  0  0  0  0  0  0  0
    5.4955   -2.6493    6.0780 C   0  0  0  0  0  0  0  0  0  0  0  0
    3.6384   -3.5775    4.6891 C   0  0  2  0  0  0  0  0  0  0  0  0
    2.4633   -3.5646    3.6869 C   0  0  1  0  0  0  0  0  0  0  0  0
    2.4665   -2.4910    2.7819 O   0  0  0  0  0  0  0  0  0  0  0  0
    2.5211   -4.8231    2.8153 C   0  0  0  0  0  0  0  0  0  0  0  0
    2.8750   -6.1597    3.5393 C   0  0  1  0  0  0  0  0  0  0  0  0
    2.7358   -6.0887    5.1130 C   0  0  2  0  0  0  0  0  0  0  0  0
    3.6423   -7.1231    5.8110 C   0  0  0  0  0  0  0  0  0  0  0  0
    1.2423   -6.4304    5.4537 C   0  0  0  0  0  0  0  0  0  0  0  0
    0.8095   -7.8618    5.8071 C   0  0  1  0  0  0  0  0  0  0  0  0
   -0.1222   -8.5861    4.8290 C   0  0  2  0  0  0  0  0  0  0  0  0
    1.0278   -9.3584    5.4010 C   0  0  1  0  0  0  0  0  0  0  0  0
    1.9626  -10.2460    4.5752 C   0  0  0  0  0  0  0  0  0  0  0  0
    3.2297  -10.7092    5.3535 C   0  0  0  0  0  0  0  0  0  0  0  0
    1.2121  -11.5692    4.3448 C   0  0  0  0  0  0  0  0  0  0  0  0
    2.1890   -9.8814    3.2114 O   0  0  0  0  0  0  0  0  0  0  0  0
    3.0079   -8.7634    2.8765 C   0  0  1  0  0  0  0  0  0  0  0  0
    4.3526   -8.8094    3.3533 O   0  0  0  0  0  0  0  0  0  0  0  0
    2.9830   -8.6319    1.3766 C   0  0  0  0  0  0  0  0  0  0  0  0
    2.6424   -7.2615    1.4531 O   0  0  0  0  0  0  0  0  0  0  0  0
    2.2404   -7.4173    2.8210 C   0  0  2  0  0  0  0  0  0  0  0  0
    0.6716   -7.3503    2.5869 C   0  0  0  0  0  0  0  0  0  0  0  0
   -0.4014   -8.2040    3.3745 C   0  0  0  0  0  0  0  0  0  0  0  0
   -0.7912   -9.4381    2.5310 C   0  0  0  0  0  0  0  0  0  0  0  0
   -1.6998   -7.3715    3.4039 C   0  0  0  0  0  0  0  0  0  0  0  0
    3.3084   -4.7153    5.7026 C   0  0  2  0  0  0  0  0  0  0  0  0
    2.6167   -4.1445    6.9509 C   0  0  0  0  0  0  0  0  0  0  0  0
    2.5179   -4.7925    7.9962 O   0  0  0  0  0  0  0  0  0  0  0  0
    2.0485   -2.7346    6.8430 C   0  0  0  0  0  0  0  0  0  0  0  0
    3.1262   -1.6494    6.5146 C   0  0  1  0  0  0  0  0  0  0  0  0
    3.7914   -1.4151    7.9127 C   0  0  0  0  0  0  0  0  0  0  0  0
    2.4275   -0.2658    6.1275 C   0  0  2  0  0  0  0  0  0  0  0  0
    1.0112   -0.3958    5.4931 C   0  0  0  0  0  0  0  0  0  0  0  0
   -2.9048   -0.2562    4.4806 H   0  0  0  0  0  0  0  0  0  0  0  0
   -1.4448   -1.2282    5.0057 H   0  0  0  0  0  0  0  0  0  0  0  0
   -1.7359    2.9088    5.3060 H   0  0  0  0  0  0  0  0  0  0  0  0
   -2.8762    2.1004    4.2314 H   0  0  0  0  0  0  0  0  0  0  0  0
   -1.3612    2.6649    3.5929 H   0  0  0  0  0  0  0  0  0  0  0  0
    0.2658    1.4769    6.2283 H   0  0  0  0  0  0  0  0  0  0  0  0
    1.2716    1.3374    3.3500 H   0  0  0  0  0  0  0  0  0  0  0  0
    0.7589    2.7974    4.1574 H   0  0  0  0  0  0  0  0  0  0  0  0
    3.1413    2.6751    4.3247 H   0  0  0  0  0  0  0  0  0  0  0  0
    2.3801    2.6217    5.8882 H   0  0  0  0  0  0  0  0  0  0  0  0
    5.2894    0.5000    6.3365 H   0  0  0  0  0  0  0  0  0  0  0  0
    4.2245    1.6556    7.1156 H   0  0  0  0  0  0  0  0  0  0  0  0
    5.0509    2.0610    5.6202 H   0  0  0  0  0  0  0  0  0  0  0  0
    2.9430   -0.1855    3.4318 H   0  0  0  0  0  0  0  0  0  0  0  0
    4.3724    0.7580    3.4495 H   0  0  0  0  0  0  0  0  0  0  0  0
    4.8593   -1.6811    3.4035 H   0  0  0  0  0  0  0  0  0  0  0  0
    5.6317   -0.7953    4.6217 H   0  0  0  0  0  0  0  0  0  0  0  0
    5.3882   -3.3712    6.8872 H   0  0  0  0  0  0  0  0  0  0  0  0
    6.0349   -1.8003    6.5008 H   0  0  0  0  0  0  0  0  0  0  0  0
    6.1758   -3.1001    5.3547 H   0  0  0  0  0  0  0  0  0  0  0  0
    4.4963   -3.9165    4.1117 H   0  0  0  0  0  0  0  0  0  0  0  0
    1.5033   -3.5603    4.1946 H   0  0  0  0  0  0  0  0  0  0  0  0
    2.3449   -1.7014    3.2641 H   0  0  0  0  0  0  0  0  0  0  0  0
    1.6372   -4.8648    2.2003 H   0  0  0  0  0  0  0  0  0  0  0  0
    3.3103   -4.6799    2.0606 H   0  0  0  0  0  0  0  0  0  0  0  0
    3.9451   -6.2489    3.3918 H   0  0  0  0  0  0  0  0  0  0  0  0
    3.6558   -7.0062    6.8960 H   0  0  0  0  0  0  0  0  0  0  0  0
    4.6784   -7.0529    5.4592 H   0  0  0  0  0  0  0  0  0  0  0  0
    3.3108   -8.1199    5.6119 H   0  0  0  0  0  0  0  0  0  0  0  0
    0.9192   -5.8795    6.3250 H   0  0  0  0  0  0  0  0  0  0  0  0
    0.5737   -5.9931    4.7176 H   0  0  0  0  0  0  0  0  0  0  0  0
    0.4488   -7.8477    6.8391 H   0  0  0  0  0  0  0  0  0  0  0  0
   -1.0566   -8.9159    5.2939 H   0  0  0  0  0  0  0  0  0  0  0  0
    0.7330   -9.9646    6.2559 H   0  0  0  0  0  0  0  0  0  0  0  0
    2.9523  -11.0363    6.3576 H   0  0  0  0  0  0  0  0  0  0  0  0
    4.0245   -9.9853    5.4823 H   0  0  0  0  0  0  0  0  0  0  0  0
    3.6937  -11.5701    4.8685 H   0  0  0  0  0  0  0  0  0  0  0  0
    1.0612  -12.1118    5.2757 H   0  0  0  0  0  0  0  0  0  0  0  0
    1.7793  -12.2185    3.6818 H   0  0  0  0  0  0  0  0  0  0  0  0
    0.2256  -11.4468    3.9091 H   0  0  0  0  0  0  0  0  0  0  0  0
    4.7006   -9.5941    2.9812 H   0  0  0  0  0  0  0  0  0  0  0  0
    3.9537   -8.8085    0.8938 H   0  0  0  0  0  0  0  0  0  0  0  0
    2.2127   -9.2398    0.8796 H   0  0  0  0  0  0  0  0  0  0  0  0
    0.3310   -6.3259    2.6488 H   0  0  0  0  0  0  0  0  0  0  0  0
    0.4623   -7.5643    1.5402 H   0  0  0  0  0  0  0  0  0  0  0  0
   -1.3231   -9.1541    1.6230 H   0  0  0  0  0  0  0  0  0  0  0  0
   -1.4547  -10.0975    3.0870 H   0  0  0  0  0  0  0  0  0  0  0  0
    0.0653  -10.0234    2.2019 H   0  0  0  0  0  0  0  0  0  0  0  0
   -1.9888   -7.0383    2.4092 H   0  0  0  0  0  0  0  0  0  0  0  0
   -1.6024   -6.4876    4.0364 H   0  0  0  0  0  0  0  0  0  0  0  0
   -2.5446   -7.9455    3.7881 H   0  0  0  0  0  0  0  0  0  0  0  0
    4.2889   -4.9699    6.0996 H   0  0  0  0  0  0  0  0  0  0  0  0
    1.2892   -2.7993    6.0721 H   0  0  0  0  0  0  0  0  0  0  0  0
    1.5159   -2.4864    7.7595 H   0  0  0  0  0  0  0  0  0  0  0  0
    3.0736   -1.0130    8.6315 H   0  0  0  0  0  0  0  0  0  0  0  0
    4.6248   -0.7204    7.9103 H   0  0  0  0  0  0  0  0  0  0  0  0
    4.1581   -2.3301    8.3775 H   0  0  0  0  0  0  0  0  0  0  0  0
    2.1995    0.2367    7.0703 H   0  0  0  0  0  0  0  0  0  0  0  0
    0.3778   -0.9598    6.1725 H   0  0  0  0  0  0  0  0  0  0  0  0
    1.0515   -0.9436    4.5503 H   0  0  0  0  0  0  0  0  0  0  0  0
  1  2  2  0
  1 45  1  0
  1 46  1  0
  2  3  1  0
  2  4  1  0
  3 47  1  0
  3 48  1  0
  3 49  1  0
  4 44  1  0
  4  5  1  0
  4 50  1  1
  5  6  1  0
  5 51  1  0
  5 52  1  0
  6  7  1  0
  6 53  1  0
  6 54  1  0
  7 43  1  0
  7  8  1  1
  7  9  1  0
  8 55  1  0
  8 56  1  0
  8 57  1  0
  9 10  1  0
  9 58  1  0
  9 59  1  0
 10 11  1  0
 10 60  1  0
 10 61  1  0
 11 41  1  0
 11 12  1  1
 11 13  1  0
 12 62  1  0
 12 63  1  0
 12 64  1  0
 13 37  1  0
 13 14  1  0
 13 65  1  6
 14 15  1  0
 14 16  1  0
 14 66  1  1
 15 67  1  0
 16 17  1  0
 16 68  1  0
 16 69  1  0
 17 32  1  0
 17 18  1  0
 17 70  1  1
 18 19  1  1
 18 20  1  0
 18 37  1  0
 19 71  1  0
 19 72  1  0
 19 73  1  0
 20 21  1  0
 20 74  1  0
 20 75  1  0
 21 23  1  0
 21 22  1  0
 21 76  1  1
 22 34  1  0
 22 23  1  0
 22 77  1  1
 23 24  1  0
 23 78  1  1
 24 25  1  0
 24 26  1  0
 24 27  1  0
 25 79  1  0
 25 80  1  0
 25 81  1  0
 26 82  1  0
 26 83  1  0
 26 84  1  0
 27 28  1  0
 28 32  1  0
 28 29  1  1
 28 30  1  0
 29 85  1  0
 30 31  1  0
 30 86  1  0
 30 87  1  0
 32 31  1  6
 32 33  1  0
 33 34  1  0
 33 88  1  0
 33 89  1  0
 34 35  1  0
 34 36  1  0
 35 90  1  0
 35 91  1  0
 35 92  1  0
 36 93  1  0
 36 94  1  0
 36 95  1  0
 37 38  1  0
 37 96  1  1
 38 39  2  0
 38 40  1  0
 40 41  1  0
 40 97  1  0
 40 98  1  0
 41 42  1  1
 41 43  1  0
 42 99  1  0
 42100  1  0
 42101  1  0
 43 44  1  0
 43102  1  1
 44103  1  0
 44104  1  0
M  END
>  <i_m_ct_stereo_status>  (320) 
1

>  <s_m_source_file>  (320) 
/var/tmp/pbs.5076255.sched01/tmpmzi298dc/117y2go66iu.sdf

>  <i_m_source_file_index>  (320) 
13

>  <i_lp_mmshare_version>  (320) 
48012

>  <i_f3d_flags>  (320) 
0

>  <s_epik_input>  (320) 
W0NIMl09QyhbQ0gzXSlbQ0BASF0oW0NIMl0xKVtDSDJdW0NIMl1bQ0BdKFtDSDNdKShbQ0gyXVtDSDJdMilbQ0BASF0xW0NAQF0oW0NIM10pKFtDSDJdQzM9TylbQ0BAXTIoW0NIM10pW0NASF0oW0NAQEhdKFtPSF0pW0NIMl00KVtDQEBIXTNbQ0BAXShbQ0BIXTRbQ0BdNTY3KShbQ0gzXSlbQ0gyXVtDQEhdOFtDQEBIXShDKFtDSDJdNykoW0NIM10pW0NIM10pW0NASF04QyhbQ0gzXSkoW0NIM10pT1tDQEBdNShbT0hdKVtDSDJdTzY=

>  <s_epik_cmdline>  (320) 
J2VwaWtfcHl0aG9uJywgJy1waHQnLCAnMi4wJywgJy1waCcsICc3LjAnLCAnLXRuJywgJzgnLCAnLW1hJywgJzIwMCcsICctaW1hZScsICc8aW5maWxlLm1hZT4nLCAnLW9tYWUnLCAnPG91dGZpbGUubWFlPic=

>  <r_lp_tautomer_probability>  (320) 
1

>  <r_epik_Ionization_Penalty>  (320) 
6.5771e-06

>  <r_epik_Ionization_Penalty_Charging>  (320) 
0

>  <r_epik_Ionization_Penalty_Neutral>  (320) 
6.5771e-06

>  <r_epik_State_Penalty>  (320) 
-0

>  <r_epik_Charging_Adjusted_Penalty>  (320) 
0

>  <i_epik_Tot_Q>  (320) 
0

>  <i_epik_Tot_abs_Q>  (320) 
0

>  <s_lp_Force_Field>  (320) 
OPLS3e

>  <r_lp_Energy>  (320) 
173.219

>  <b_lp_Chiralities_Consistent>  (320) 
1

>  <s_lp_Variant>  (320) 
96:0-1

>  <s_i_glide_gridfile>  (320) 
pfpi4k_grid

>  <i_i_glide_lignum>  (320) 
13

>  <i_i_glide_rotatable_bonds>  (320) 
3

>  <r_i_docking_score>  (320) 
-2.05524

>  <r_i_glide_ligand_efficiency>  (320) 
-0.04671

>  <r_i_glide_ligand_efficiency_sa>  (320) 
-0.164902

>  <r_i_glide_ligand_efficiency_ln>  (320) 
-0.42959

>  <r_i_glide_gscore>  (320) 
-2.05524

>  <r_i_glide_lipo>  (320) 
-0.282493

>  <r_i_glide_hbond>  (320) 
0

>  <r_i_glide_metal>  (320) 
-0

>  <r_i_glide_rewards>  (320) 
0

>  <r_i_glide_evdw>  (320) 
-35.6393

>  <r_i_glide_ecoul>  (320) 
-0.256777

>  <r_i_glide_erotb>  (320) 
0.0567607

>  <r_i_glide_esite>  (320) 
-0.00902279

>  <r_i_glide_emodel>  (320) 
-39.4537

>  <r_i_glide_energy>  (320) 
-35.8961

>  <r_i_glide_einternal>  (320) 
1.49519

>  <r_i_glide_intrahb_reward>  (320) 
-0

>  <i_i_glide_confnum>  (320) 
1

>  <i_i_glide_posenum>  (320) 
14

>  <r_i_glide_eff_state_penalty>  (320) 
0

>  <ligand_id>  (320) 
96

>  <original_smiles>  (320) 
C=C(C)C1CCC2(C)CCC3(C)C4C(O)CC5C(C)(CC6C7C6C(C)(C)OC6(O)COC56CC7(C)C)C4C(=O)CC3(C)C2C1

>  <smiles>  (320) 
[H]OC1([H])C([H])([H])C2([H])C34OC([H])([H])C3(O[H])OC(C([H])([H])[H])(C([H])([H])[H])C3([H])C([H])(C([H])([H])C2(C([H])([H])[H])C2([H])C(=O)C([H])([H])C5(C([H])([H])[H])C6([H])C([H])([H])C([H])(C(=C([H])[H])C([H])([H])[H])C([H])([H])C([H])([H])C6(C([H])([H])[H])C([H])([H])C([H])([H])C5(C([H])([H])[H])C12[H])C3([H])C(C([H])([H])[H])(C([H])([H])[H])C4([H])[H]

$$$$
97:0:0
     RDKit          3D

 31 33  0  0  1  0  0  0  0  0999 V2000
    3.7751   -2.3596    3.4616 C   0  0  0  0  0  0  0  0  0  0  0  0
    3.8950   -1.8442    2.2276 C   0  0  0  0  0  0  0  0  0  0  0  0
    2.9303   -0.9315    1.5971 C   0  0  0  0  0  0  0  0  0  0  0  0
    1.9072   -0.4757    2.1051 O   0  0  0  0  0  0  0  0  0  0  0  0
    3.3858   -0.6869    0.3345 O   0  0  0  0  0  0  0  0  0  0  0  0
    4.5504   -1.3759    0.1754 C   0  0  0  0  0  0  0  0  0  0  0  0
    4.9144   -2.0438    1.2514 C   0  0  0  0  0  0  0  0  0  0  0  0
    6.1495   -2.9052    1.2521 C   0  0  0  0  0  0  0  0  0  0  0  0
    6.5224   -3.3063   -0.0728 O   0  0  0  0  0  0  0  0  0  0  0  0
    6.2117   -2.6223   -1.2253 C   0  0  0  0  0  0  0  0  0  0  0  0
    6.6167   -2.9881   -2.3206 O   0  0  0  0  0  0  0  0  0  0  0  0
    5.3332   -1.3438   -1.1146 C   0  0  1  0  0  0  0  0  0  0  0  0
    4.4086   -1.1744   -2.3063 C   0  0  0  0  0  0  0  0  0  0  0  0
    4.2115   -0.0621   -3.0828 C   0  0  0  0  0  0  0  0  0  0  0  0
    3.3264   -0.3773   -4.0829 N   0  0  0  0  0  0  0  0  0  0  0  0
    2.8011    0.4778   -5.1287 C   0  0  0  0  0  0  0  0  0  0  0  0
    2.9400   -1.6562   -3.9969 N   0  0  0  0  0  0  0  0  0  0  0  0
    3.5511   -2.1286   -2.9281 C   0  0  0  0  0  0  0  0  0  0  0  0
    3.2959   -3.5502   -2.5721 C   0  0  0  0  0  0  0  0  0  0  0  0
    4.5047   -3.0406    3.8703 H   0  0  0  0  0  0  0  0  0  0  0  0
    2.9197   -2.1179    4.0780 H   0  0  0  0  0  0  0  0  0  0  0  0
    6.9763   -2.3325    1.6734 H   0  0  0  0  0  0  0  0  0  0  0  0
    5.9966   -3.7903    1.8752 H   0  0  0  0  0  0  0  0  0  0  0  0
    6.0072   -0.4953   -1.0383 H   0  0  0  0  0  0  0  0  0  0  0  0
    4.6200    0.9304   -3.0077 H   0  0  0  0  0  0  0  0  0  0  0  0
    3.2460    1.4690   -5.0591 H   0  0  0  0  0  0  0  0  0  0  0  0
    1.7214    0.5748   -5.0265 H   0  0  0  0  0  0  0  0  0  0  0  0
    3.0314    0.0543   -6.1033 H   0  0  0  0  0  0  0  0  0  0  0  0
    3.8270   -3.8567   -1.6724 H   0  0  0  0  0  0  0  0  0  0  0  0
    3.6338   -4.1869   -3.3929 H   0  0  0  0  0  0  0  0  0  0  0  0
    2.2334   -3.7391   -2.4007 H   0  0  0  0  0  0  0  0  0  0  0  0
  1  2  2  0
  1 20  1  0
  1 21  1  0
  2  7  1  0
  2  3  1  0
  3  4  2  0
  3  5  1  0
  5  6  1  0
  6 12  1  0
  6  7  2  0
  7  8  1  0
  8  9  1  0
  8 22  1  0
  8 23  1  0
  9 10  1  0
 10 11  2  0
 10 12  1  0
 12 13  1  0
 12 24  1  1
 13 18  1  0
 13 14  2  0
 14 15  1  0
 14 25  1  0
 15 16  1  0
 15 17  1  0
 16 26  1  0
 16 27  1  0
 16 28  1  0
 17 18  2  0
 18 19  1  0
 19 29  1  0
 19 30  1  0
 19 31  1  0
M  END
>  <i_m_ct_stereo_status>  (321) 
1

>  <s_m_source_file>  (321) 
/var/tmp/pbs.5076255.sched01/tmpmzi298dc/117y2go66iu.sdf

>  <i_m_source_file_index>  (321) 
14

>  <i_lp_mmshare_version>  (321) 
48012

>  <i_f3d_flags>  (321) 
0

>  <s_epik_input>  (321) 
Tz1DKE8xKUMoPVtDSDJdKUMoPUMxMilbQ0gyXU9DKD1PKVtDQEhdMmMzW2NIXW4oW0NIM10pbmMzW0NIM10=

>  <s_epik_cmdline>  (321) 
J2VwaWtfcHl0aG9uJywgJy1waHQnLCAnMi4wJywgJy1waCcsICc3LjAnLCAnLXRuJywgJzgnLCAnLW1hJywgJzIwMCcsICctaW1hZScsICc8aW5maWxlLm1hZT4nLCAnLW9tYWUnLCAnPG91dGZpbGUubWFlPic=

>  <r_lp_tautomer_probability>  (321) 
1

>  <r_epik_Ionization_Penalty>  (321) 
1.9988e-05

>  <r_epik_Ionization_Penalty_Charging>  (321) 
0

>  <r_epik_Ionization_Penalty_Neutral>  (321) 
1.9988e-05

>  <r_epik_State_Penalty>  (321) 
-0

>  <r_epik_Charging_Adjusted_Penalty>  (321) 
0

>  <i_epik_Tot_Q>  (321) 
0

>  <i_epik_Tot_abs_Q>  (321) 
0

>  <s_epik_Chemistry_Notes>  (321) 
This compound has an ester and may undergo hydrolysis at high or low pH.

>  <s_lp_Force_Field>  (321) 
OPLS3e

>  <r_lp_Energy>  (321) 
14.1772

>  <b_lp_Chiralities_Consistent>  (321) 
1

>  <s_lp_Variant>  (321) 
97:0-1

>  <s_i_glide_gridfile>  (321) 
pfpi4k_grid

>  <i_i_glide_lignum>  (321) 
14

>  <i_i_glide_rotatable_bonds>  (321) 
1

>  <r_i_docking_score>  (321) 
-3.45097

>  <r_i_glide_ligand_efficiency>  (321) 
-0.18163

>  <r_i_glide_ligand_efficiency_sa>  (321) 
-0.484662

>  <r_i_glide_ligand_efficiency_ln>  (321) 
-0.874896

>  <r_i_glide_gscore>  (321) 
-3.45097

>  <r_i_glide_lipo>  (321) 
-0.340336

>  <r_i_glide_hbond>  (321) 
0

>  <r_i_glide_metal>  (321) 
-0

>  <r_i_glide_rewards>  (321) 
-2.04846

>  <r_i_glide_evdw>  (321) 
-26.6134

>  <r_i_glide_ecoul>  (321) 
0.436208

>  <r_i_glide_erotb>  (321) 
0.261327

>  <r_i_glide_esite>  (321) 
-0.0582678

>  <r_i_glide_emodel>  (321) 
-31.6007

>  <r_i_glide_energy>  (321) 
-26.1772

>  <r_i_glide_einternal>  (321) 
0.524185

>  <r_i_glide_intrahb_reward>  (321) 
-0

>  <i_i_glide_confnum>  (321) 
1

>  <i_i_glide_posenum>  (321) 
6

>  <r_i_glide_eff_state_penalty>  (321) 
0

>  <ligand_id>  (321) 
97

>  <original_smiles>  (321) 
C=C1C(=O)OC2=C1COC(=O)C2c1cn(C)nc1C

>  <smiles>  (321) 
[H]C([H])=C1C(=O)OC2=C1C([H])([H])OC(=O)C2([H])c1c(C([H])([H])[H])nn(C([H])([H])[H])c1[H]

$$$$
97:0:1
     RDKit          3D

 31 33  0  0  1  0  0  0  0  0999 V2000
    1.9981   -9.1099    2.0357 C   0  0  0  0  0  0  0  0  0  0  0  0
    1.2994   -8.1676    2.6901 C   0  0  0  0  0  0  0  0  0  0  0  0
    0.7364   -6.9517    2.0774 C   0  0  0  0  0  0  0  0  0  0  0  0
    0.7595   -6.6095    0.8949 O   0  0  0  0  0  0  0  0  0  0  0  0
    0.1612   -6.2384    3.0806 O   0  0  0  0  0  0  0  0  0  0  0  0
    0.3236   -6.9384    4.2422 C   0  0  0  0  0  0  0  0  0  0  0  0
    0.9510   -8.0856    4.0737 C   0  0  0  0  0  0  0  0  0  0  0  0
    1.2690   -8.9696    5.2526 C   0  0  0  0  0  0  0  0  0  0  0  0
    1.3180   -8.2220    6.4842 O   0  0  0  0  0  0  0  0  0  0  0  0
    0.6432   -7.0433    6.7329 C   0  0  0  0  0  0  0  0  0  0  0  0
    0.6543   -6.5034    7.8378 O   0  0  0  0  0  0  0  0  0  0  0  0
   -0.1715   -6.4089    5.5737 C   0  0  1  0  0  0  0  0  0  0  0  0
   -0.1285   -4.8907    5.6371 C   0  0  0  0  0  0  0  0  0  0  0  0
    0.6484   -4.0137    4.9277 C   0  0  0  0  0  0  0  0  0  0  0  0
    0.3329   -2.7376    5.3342 N   0  0  0  0  0  0  0  0  0  0  0  0
    0.8868   -1.4839    4.8771 C   0  0  0  0  0  0  0  0  0  0  0  0
   -0.6138   -2.7399    6.2897 N   0  0  0  0  0  0  0  0  0  0  0  0
   -0.8813   -4.0241    6.4893 C   0  0  0  0  0  0  0  0  0  0  0  0
   -1.9144   -4.3809    7.5160 C   0  0  0  0  0  0  0  0  0  0  0  0
    2.3985   -9.9800    2.5345 H   0  0  0  0  0  0  0  0  0  0  0  0
    2.1851   -9.0211    0.9717 H   0  0  0  0  0  0  0  0  0  0  0  0
    0.4923   -9.7322    5.3370 H   0  0  0  0  0  0  0  0  0  0  0  0
    2.2226   -9.4831    5.0920 H   0  0  0  0  0  0  0  0  0  0  0  0
   -1.1972   -6.7435    5.6726 H   0  0  0  0  0  0  0  0  0  0  0  0
    1.3880   -4.1941    4.1590 H   0  0  0  0  0  0  0  0  0  0  0  0
    1.6140   -1.6622    4.0829 H   0  0  0  0  0  0  0  0  0  0  0  0
    1.3881   -0.9801    5.7033 H   0  0  0  0  0  0  0  0  0  0  0  0
    0.0935   -0.8443    4.4912 H   0  0  0  0  0  0  0  0  0  0  0  0
   -2.0365   -5.4578    7.6036 H   0  0  0  0  0  0  0  0  0  0  0  0
   -2.8871   -3.9613    7.2516 H   0  0  0  0  0  0  0  0  0  0  0  0
   -1.6322   -4.0049    8.5007 H   0  0  0  0  0  0  0  0  0  0  0  0
  1  2  2  0
  1 20  1  0
  1 21  1  0
  2  7  1  0
  2  3  1  0
  3  4  2  0
  3  5  1  0
  5  6  1  0
  6 12  1  0
  6  7  2  0
  7  8  1  0
  8  9  1  0
  8 22  1  0
  8 23  1  0
  9 10  1  0
 10 11  2  0
 10 12  1  0
 12 13  1  0
 12 24  1  1
 13 18  1  0
 13 14  2  0
 14 15  1  0
 14 25  1  0
 15 16  1  0
 15 17  1  0
 16 26  1  0
 16 27  1  0
 16 28  1  0
 17 18  2  0
 18 19  1  0
 19 29  1  0
 19 30  1  0
 19 31  1  0
M  END
>  <i_m_ct_stereo_status>  (322) 
1

>  <s_m_source_file>  (322) 
/var/tmp/pbs.5076255.sched01/tmpmzi298dc/117y2go66iu.sdf

>  <i_m_source_file_index>  (322) 
14

>  <i_lp_mmshare_version>  (322) 
48012

>  <i_f3d_flags>  (322) 
0

>  <s_epik_input>  (322) 
Tz1DKE8xKUMoPVtDSDJdKUMoPUMxMilbQ0gyXU9DKD1PKVtDQEhdMmMzW2NIXW4oW0NIM10pbmMzW0NIM10=

>  <s_epik_cmdline>  (322) 
J2VwaWtfcHl0aG9uJywgJy1waHQnLCAnMi4wJywgJy1waCcsICc3LjAnLCAnLXRuJywgJzgnLCAnLW1hJywgJzIwMCcsICctaW1hZScsICc8aW5maWxlLm1hZT4nLCAnLW9tYWUnLCAnPG91dGZpbGUubWFlPic=

>  <r_lp_tautomer_probability>  (322) 
1

>  <r_epik_Ionization_Penalty>  (322) 
1.9988e-05

>  <r_epik_Ionization_Penalty_Charging>  (322) 
0

>  <r_epik_Ionization_Penalty_Neutral>  (322) 
1.9988e-05

>  <r_epik_State_Penalty>  (322) 
-0

>  <r_epik_Charging_Adjusted_Penalty>  (322) 
0

>  <i_epik_Tot_Q>  (322) 
0

>  <i_epik_Tot_abs_Q>  (322) 
0

>  <s_epik_Chemistry_Notes>  (322) 
This compound has an ester and may undergo hydrolysis at high or low pH.

>  <s_lp_Force_Field>  (322) 
OPLS3e

>  <r_lp_Energy>  (322) 
14.1772

>  <b_lp_Chiralities_Consistent>  (322) 
1

>  <s_lp_Variant>  (322) 
97:0-1

>  <s_i_glide_gridfile>  (322) 
pfpi4k_grid

>  <i_i_glide_lignum>  (322) 
14

>  <i_i_glide_rotatable_bonds>  (322) 
1

>  <r_i_docking_score>  (322) 
-3.39907

>  <r_i_glide_ligand_efficiency>  (322) 
-0.178899

>  <r_i_glide_ligand_efficiency_sa>  (322) 
-0.477373

>  <r_i_glide_ligand_efficiency_ln>  (322) 
-0.861738

>  <r_i_glide_gscore>  (322) 
-3.39907

>  <r_i_glide_lipo>  (322) 
-0.15374

>  <r_i_glide_hbond>  (322) 
-0.236722

>  <r_i_glide_metal>  (322) 
-0

>  <r_i_glide_rewards>  (322) 
-1.63469

>  <r_i_glide_evdw>  (322) 
-18.5124

>  <r_i_glide_ecoul>  (322) 
-4.20489

>  <r_i_glide_erotb>  (322) 
0.261327

>  <r_i_glide_esite>  (322) 
-0.0788923

>  <r_i_glide_emodel>  (322) 
-28.3173

>  <r_i_glide_energy>  (322) 
-22.7173

>  <r_i_glide_einternal>  (322) 
0.290877

>  <r_i_glide_intrahb_reward>  (322) 
-0

>  <i_i_glide_confnum>  (322) 
2

>  <i_i_glide_posenum>  (322) 
15

>  <r_i_glide_eff_state_penalty>  (322) 
0

>  <ligand_id>  (322) 
97

>  <original_smiles>  (322) 
C=C1C(=O)OC2=C1COC(=O)C2c1cn(C)nc1C

>  <smiles>  (322) 
[H]C([H])=C1C(=O)OC2=C1C([H])([H])OC(=O)C2([H])c1c(C([H])([H])[H])nn(C([H])([H])[H])c1[H]

$$$$
97:0:2
     RDKit          3D

 31 33  0  0  1  0  0  0  0  0999 V2000
    0.3851   -9.9832    3.0386 C   0  0  0  0  0  0  0  0  0  0  0  0
    0.0196   -8.9261    3.7868 C   0  0  0  0  0  0  0  0  0  0  0  0
   -1.0649   -7.9864    3.4541 C   0  0  0  0  0  0  0  0  0  0  0  0
   -1.8218   -8.0299    2.4855 O   0  0  0  0  0  0  0  0  0  0  0  0
   -1.0691   -7.0220    4.4188 O   0  0  0  0  0  0  0  0  0  0  0  0
   -0.0852   -7.3347    5.3133 C   0  0  0  0  0  0  0  0  0  0  0  0
    0.5641   -8.4420    5.0168 C   0  0  0  0  0  0  0  0  0  0  0  0
    1.7240   -8.9061    5.8650 C   0  0  0  0  0  0  0  0  0  0  0  0
    2.3159   -7.8186    6.5995 O   0  0  0  0  0  0  0  0  0  0  0  0
    1.6634   -6.6614    6.9810 C   0  0  0  0  0  0  0  0  0  0  0  0
    2.2024   -5.8028    7.6751 O   0  0  0  0  0  0  0  0  0  0  0  0
    0.1940   -6.4737    6.5270 C   0  0  1  0  0  0  0  0  0  0  0  0
   -0.1212   -5.0177    6.2383 C   0  0  0  0  0  0  0  0  0  0  0  0
    0.4189   -4.2028    5.2783 C   0  0  0  0  0  0  0  0  0  0  0  0
   -0.1290   -2.9492    5.4315 N   0  0  0  0  0  0  0  0  0  0  0  0
    0.1242   -1.7476    4.6622 C   0  0  0  0  0  0  0  0  0  0  0  0
   -0.9988   -2.9100    6.4581 N   0  0  0  0  0  0  0  0  0  0  0  0
   -0.9988   -4.1420    6.9461 C   0  0  0  0  0  0  0  0  0  0  0  0
   -1.8800   -4.4365    8.1237 C   0  0  0  0  0  0  0  0  0  0  0  0
    1.2017  -10.6285    3.3230 H   0  0  0  0  0  0  0  0  0  0  0  0
   -0.1221  -10.2110    2.1104 H   0  0  0  0  0  0  0  0  0  0  0  0
    1.3669   -9.6552    6.5744 H   0  0  0  0  0  0  0  0  0  0  0  0
    2.4812   -9.3813    5.2370 H   0  0  0  0  0  0  0  0  0  0  0  0
   -0.4232   -6.8412    7.3429 H   0  0  0  0  0  0  0  0  0  0  0  0
    1.1500   -4.4108    4.5094 H   0  0  0  0  0  0  0  0  0  0  0  0
    0.8340   -1.9569    3.8616 H   0  0  0  0  0  0  0  0  0  0  0  0
    0.5409   -0.9733    5.3073 H   0  0  0  0  0  0  0  0  0  0  0  0
   -0.8047   -1.3855    4.2220 H   0  0  0  0  0  0  0  0  0  0  0  0
   -1.7666   -5.4585    8.4645 H   0  0  0  0  0  0  0  0  0  0  0  0
   -2.9315   -4.2874    7.8736 H   0  0  0  0  0  0  0  0  0  0  0  0
   -1.6331   -3.7955    8.9692 H   0  0  0  0  0  0  0  0  0  0  0  0
  1  2  2  0
  1 20  1  0
  1 21  1  0
  2  7  1  0
  2  3  1  0
  3  4  2  0
  3  5  1  0
  5  6  1  0
  6 12  1  0
  6  7  2  0
  7  8  1  0
  8  9  1  0
  8 22  1  0
  8 23  1  0
  9 10  1  0
 10 11  2  0
 10 12  1  0
 12 13  1  0
 12 24  1  1
 13 18  1  0
 13 14  2  0
 14 15  1  0
 14 25  1  0
 15 16  1  0
 15 17  1  0
 16 26  1  0
 16 27  1  0
 16 28  1  0
 17 18  2  0
 18 19  1  0
 19 29  1  0
 19 30  1  0
 19 31  1  0
M  END
>  <i_m_ct_stereo_status>  (323) 
1

>  <s_m_source_file>  (323) 
/var/tmp/pbs.5076255.sched01/tmpmzi298dc/117y2go66iu.sdf

>  <i_m_source_file_index>  (323) 
14

>  <i_lp_mmshare_version>  (323) 
48012

>  <i_f3d_flags>  (323) 
0

>  <s_epik_input>  (323) 
Tz1DKE8xKUMoPVtDSDJdKUMoPUMxMilbQ0gyXU9DKD1PKVtDQEhdMmMzW2NIXW4oW0NIM10pbmMzW0NIM10=

>  <s_epik_cmdline>  (323) 
J2VwaWtfcHl0aG9uJywgJy1waHQnLCAnMi4wJywgJy1waCcsICc3LjAnLCAnLXRuJywgJzgnLCAnLW1hJywgJzIwMCcsICctaW1hZScsICc8aW5maWxlLm1hZT4nLCAnLW9tYWUnLCAnPG91dGZpbGUubWFlPic=

>  <r_lp_tautomer_probability>  (323) 
1

>  <r_epik_Ionization_Penalty>  (323) 
1.9988e-05

>  <r_epik_Ionization_Penalty_Charging>  (323) 
0

>  <r_epik_Ionization_Penalty_Neutral>  (323) 
1.9988e-05

>  <r_epik_State_Penalty>  (323) 
-0

>  <r_epik_Charging_Adjusted_Penalty>  (323) 
0

>  <i_epik_Tot_Q>  (323) 
0

>  <i_epik_Tot_abs_Q>  (323) 
0

>  <s_epik_Chemistry_Notes>  (323) 
This compound has an ester and may undergo hydrolysis at high or low pH.

>  <s_lp_Force_Field>  (323) 
OPLS3e

>  <r_lp_Energy>  (323) 
14.1772

>  <b_lp_Chiralities_Consistent>  (323) 
1

>  <s_lp_Variant>  (323) 
97:0-1

>  <s_i_glide_gridfile>  (323) 
pfpi4k_grid

>  <i_i_glide_lignum>  (323) 
14

>  <i_i_glide_rotatable_bonds>  (323) 
1

>  <r_i_docking_score>  (323) 
-3.04611

>  <r_i_glide_ligand_efficiency>  (323) 
-0.160322

>  <r_i_glide_ligand_efficiency_sa>  (323) 
-0.427803

>  <r_i_glide_ligand_efficiency_ln>  (323) 
-0.772255

>  <r_i_glide_gscore>  (323) 
-3.04611

>  <r_i_glide_lipo>  (323) 
-0.00221633

>  <r_i_glide_hbond>  (323) 
0

>  <r_i_glide_metal>  (323) 
-0

>  <r_i_glide_rewards>  (323) 
-1.63469

>  <r_i_glide_evdw>  (323) 
-20.8526

>  <r_i_glide_ecoul>  (323) 
-3.67681

>  <r_i_glide_erotb>  (323) 
0.261327

>  <r_i_glide_esite>  (323) 
-0.0763818

>  <r_i_glide_emodel>  (323) 
-29.6281

>  <r_i_glide_energy>  (323) 
-24.5294

>  <r_i_glide_einternal>  (323) 
0.147627

>  <r_i_glide_intrahb_reward>  (323) 
-0

>  <i_i_glide_confnum>  (323) 
2

>  <i_i_glide_posenum>  (323) 
13

>  <r_i_glide_eff_state_penalty>  (323) 
0

>  <ligand_id>  (323) 
97

>  <original_smiles>  (323) 
C=C1C(=O)OC2=C1COC(=O)C2c1cn(C)nc1C

>  <smiles>  (323) 
[H]C([H])=C1C(=O)OC2=C1C([H])([H])OC(=O)C2([H])c1c(C([H])([H])[H])nn(C([H])([H])[H])c1[H]

$$$$
98:0:0
     RDKit          3D

 52 55  0  0  1  0  0  0  0  0999 V2000
    3.3958   -1.7734    1.1542 C   0  0  0  0  0  0  0  0  0  0  0  0
    3.8535   -2.6640   -0.0215 C   0  0  2  0  0  0  0  0  0  0  0  0
    2.7782   -3.7255   -0.3037 C   0  0  0  0  0  0  0  0  0  0  0  0
    2.6634   -4.8425    0.7636 C   0  0  1  0  0  0  0  0  0  0  0  0
    1.6438   -5.6702    0.2041 O   0  0  0  0  0  0  0  0  0  0  0  0
    4.0468   -5.5992    0.9110 C   0  0  1  0  0  0  0  0  0  0  0  0
    4.3047   -6.0342   -0.3080 F   0  0  0  0  0  0  0  0  0  0  0  0
    5.1352   -4.5162    1.2762 C   0  0  1  0  0  0  0  0  0  0  0  0
    6.5108   -5.1493    1.5820 C   0  0  0  0  0  0  0  0  0  0  0  0
    6.4447   -6.0955    2.8055 C   0  0  0  0  0  0  0  0  0  0  0  0
    5.0114   -6.5765    3.1131 C   0  0  0  0  0  0  0  0  0  0  0  0
    4.5908   -6.6885    4.3869 C   0  0  0  0  0  0  0  0  0  0  0  0
    3.2219   -7.1215    4.7189 C   0  0  0  0  0  0  0  0  0  0  0  0
    2.8305   -7.1928    5.8883 O   0  0  0  0  0  0  0  0  0  0  0  0
    2.3536   -7.4914    3.5938 C   0  0  0  0  0  0  0  0  0  0  0  0
    2.7737   -7.4072    2.3345 C   0  0  0  0  0  0  0  0  0  0  0  0
    4.1436   -6.8928    1.8695 C   0  0  1  0  0  0  0  0  0  0  0  0
    4.8101   -8.0928    1.1274 C   0  0  0  0  0  0  0  0  0  0  0  0
    5.2190   -3.3342    0.2551 C   0  0  1  0  0  0  0  0  0  0  0  0
    5.8389   -3.6180   -1.1285 C   0  0  0  0  0  0  0  0  0  0  0  0
    5.2420   -2.5876   -2.0992 C   0  0  1  0  0  0  0  0  0  0  0  0
    4.7488   -3.2826   -3.4155 C   0  0  0  0  0  0  0  0  0  0  0  0
    4.1984   -2.3670   -4.3331 O   0  0  0  0  0  0  0  0  0  0  0  0
    4.1758   -1.8236   -1.2704 C   0  0  1  0  0  0  0  0  0  0  0  0
    3.0223   -1.4384   -2.0087 O   0  0  0  0  0  0  0  0  0  0  0  0
    2.4412   -1.3030    0.9289 H   0  0  0  0  0  0  0  0  0  0  0  0
    4.1090   -0.9801    1.3610 H   0  0  0  0  0  0  0  0  0  0  0  0
    3.2569   -2.3294    2.0807 H   0  0  0  0  0  0  0  0  0  0  0  0
    1.8142   -3.2415   -0.4194 H   0  0  0  0  0  0  0  0  0  0  0  0
    2.9749   -4.1992   -1.2612 H   0  0  0  0  0  0  0  0  0  0  0  0
    2.3281   -4.4487    1.7225 H   0  0  0  0  0  0  0  0  0  0  0  0
    2.0399   -6.1835   -0.4743 H   0  0  0  0  0  0  0  0  0  0  0  0
    4.8419   -4.0614    2.2173 H   0  0  0  0  0  0  0  0  0  0  0  0
    6.8670   -5.6899    0.7074 H   0  0  0  0  0  0  0  0  0  0  0  0
    7.2662   -4.3759    1.7565 H   0  0  0  0  0  0  0  0  0  0  0  0
    7.0752   -6.9648    2.6247 H   0  0  0  0  0  0  0  0  0  0  0  0
    6.8685   -5.6057    3.6876 H   0  0  0  0  0  0  0  0  0  0  0  0
    5.2547   -6.4632    5.2212 H   0  0  0  0  0  0  0  0  0  0  0  0
    1.3678   -7.8872    3.8146 H   0  0  0  0  0  0  0  0  0  0  0  0
    2.1200   -7.7944    1.5455 H   0  0  0  0  0  0  0  0  0  0  0  0
    4.8781   -8.9815    1.7526 H   0  0  0  0  0  0  0  0  0  0  0  0
    5.8160   -7.8737    0.8100 H   0  0  0  0  0  0  0  0  0  0  0  0
    4.2633   -8.3913    0.2447 H   0  0  0  0  0  0  0  0  0  0  0  0
    5.8729   -2.5773    0.7100 H   0  0  0  0  0  0  0  0  0  0  0  0
    6.9282   -3.5688   -1.1094 H   0  0  0  0  0  0  0  0  0  0  0  0
    5.6050   -4.6031   -1.5122 H   0  0  0  0  0  0  0  0  0  0  0  0
    6.0221   -1.8676   -2.3394 H   0  0  0  0  0  0  0  0  0  0  0  0
    5.5481   -3.8604   -3.9071 H   0  0  0  0  0  0  0  0  0  0  0  0
    3.9426   -3.9925   -3.2322 H   0  0  0  0  0  0  0  0  0  0  0  0
    3.5330   -1.8783   -3.8416 H   0  0  0  0  0  0  0  0  0  0  0  0
    4.6292   -0.8954   -0.9408 H   0  0  0  0  0  0  0  0  0  0  0  0
    2.2843   -1.3618   -1.4300 H   0  0  0  0  0  0  0  0  0  0  0  0
  2  1  1  1
  1 26  1  0
  1 27  1  0
  1 28  1  0
  2 19  1  0
  2 24  1  0
  2  3  1  0
  3  4  1  0
  3 29  1  0
  3 30  1  0
  4  5  1  0
  4  6  1  0
  4 31  1  1
  5 32  1  0
  6 17  1  0
  6  7  1  6
  6  8  1  0
  8  9  1  0
  8 19  1  0
  8 33  1  1
  9 10  1  0
  9 34  1  0
  9 35  1  0
 10 11  1  0
 10 36  1  0
 10 37  1  0
 11 17  1  0
 11 12  2  0
 12 13  1  0
 12 38  1  0
 13 14  2  0
 13 15  1  0
 15 16  2  0
 15 39  1  0
 16 17  1  0
 16 40  1  0
 17 18  1  6
 18 41  1  0
 18 42  1  0
 18 43  1  0
 19 20  1  0
 19 44  1  1
 20 21  1  0
 20 45  1  0
 20 46  1  0
 21 22  1  0
 21 24  1  0
 21 47  1  6
 22 23  1  0
 22 48  1  0
 22 49  1  0
 23 50  1  0
 24 25  1  0
 24 51  1  1
 25 52  1  0
M  END
>  <i_m_ct_stereo_status>  (324) 
1

>  <s_m_source_file>  (324) 
/var/tmp/pbs.5076255.sched01/tmpmzi298dc/117y2go66iu.sdf

>  <i_m_source_file_index>  (324) 
15

>  <i_lp_mmshare_version>  (324) 
48012

>  <i_f3d_flags>  (324) 
0

>  <s_epik_input>  (324) 
W09IXVtDSDJdW0NAQEhdKFtDQEhdMVtPSF0pW0NIMl1bQ0BASF0oW0NAQF0xMltDSDNdKVtDQEhdM1tDQF0oRikoW0NAQEhdKFtDSDJdMilbT0hdKVtDQEBdNChbQ0gzXSlDKFtDSDJdW0NIMl0zKT1bQ0hdQyg9TylbQ0hdPVtDSF00

>  <s_epik_cmdline>  (324) 
J2VwaWtfcHl0aG9uJywgJy1waHQnLCAnMi4wJywgJy1waCcsICc3LjAnLCAnLXRuJywgJzgnLCAnLW1hJywgJzIwMCcsICctaW1hZScsICc8aW5maWxlLm1hZT4nLCAnLW9tYWUnLCAnPG91dGZpbGUubWFlPic=

>  <r_lp_tautomer_probability>  (324) 
1

>  <r_epik_Ionization_Penalty>  (324) 
1.27377e-06

>  <r_epik_Ionization_Penalty_Charging>  (324) 
0

>  <r_epik_Ionization_Penalty_Neutral>  (324) 
1.27377e-06

>  <r_epik_State_Penalty>  (324) 
-0

>  <r_epik_Charging_Adjusted_Penalty>  (324) 
0

>  <i_epik_Tot_Q>  (324) 
0

>  <i_epik_Tot_abs_Q>  (324) 
0

>  <s_lp_Force_Field>  (324) 
OPLS3e

>  <r_lp_Energy>  (324) 
40.4441

>  <b_lp_Chiralities_Consistent>  (324) 
1

>  <s_lp_Variant>  (324) 
98:0-1

>  <s_i_glide_gridfile>  (324) 
pfpi4k_grid

>  <i_i_glide_lignum>  (324) 
15

>  <i_i_glide_rotatable_bonds>  (324) 
4

>  <r_i_docking_score>  (324) 
-4.78763

>  <r_i_glide_ligand_efficiency>  (324) 
-0.191505

>  <r_i_glide_ligand_efficiency_sa>  (324) 
-0.559965

>  <r_i_glide_ligand_efficiency_ln>  (324) 
-1.13481

>  <r_i_glide_gscore>  (324) 
-4.78763

>  <r_i_glide_lipo>  (324) 
-0.652509

>  <r_i_glide_hbond>  (324) 
-0.212895

>  <r_i_glide_metal>  (324) 
-0

>  <r_i_glide_rewards>  (324) 
-1.51983

>  <r_i_glide_evdw>  (324) 
-17.5022

>  <r_i_glide_ecoul>  (324) 
-11.0772

>  <r_i_glide_erotb>  (324) 
0.155221

>  <r_i_glide_esite>  (324) 
-0.0209231

>  <r_i_glide_emodel>  (324) 
-41.3757

>  <r_i_glide_energy>  (324) 
-28.5794

>  <r_i_glide_einternal>  (324) 
2.58744

>  <r_i_glide_intrahb_reward>  (324) 
-0.5

>  <i_i_glide_confnum>  (324) 
5

>  <i_i_glide_posenum>  (324) 
39

>  <r_i_glide_eff_state_penalty>  (324) 
0

>  <ligand_id>  (324) 
98

>  <original_smiles>  (324) 
CC12CC(O)C3(F)C(CCC4=CC(=O)C=CC43C)C1CC(CO)C2O

>  <smiles>  (324) 
[H]OC([H])([H])C1([H])C([H])([H])C2([H])C3([H])C([H])([H])C([H])([H])C4=C([H])C(=O)C([H])=C([H])C4(C([H])([H])[H])C3(F)C([H])(O[H])C([H])([H])C2(C([H])([H])[H])C1([H])O[H]

$$$$
98:0:1
     RDKit          3D

 52 55  0  0  1  0  0  0  0  0999 V2000
    3.3241   -1.6443    1.8764 C   0  0  0  0  0  0  0  0  0  0  0  0
    4.2764   -2.5922    1.1263 C   0  0  2  0  0  0  0  0  0  0  0  0
    3.4633   -3.4133    0.0999 C   0  0  0  0  0  0  0  0  0  0  0  0
    2.5566   -4.4798    0.7506 C   0  0  1  0  0  0  0  0  0  0  0  0
    1.8576   -5.0786   -0.3153 O   0  0  0  0  0  0  0  0  0  0  0  0
    3.3954   -5.5157    1.5623 C   0  0  1  0  0  0  0  0  0  0  0  0
    4.3068   -5.9806    0.6670 F   0  0  0  0  0  0  0  0  0  0  0  0
    4.1700   -4.6887    2.6526 C   0  0  1  0  0  0  0  0  0  0  0  0
    4.9147   -5.5965    3.6525 C   0  0  0  0  0  0  0  0  0  0  0  0
    3.9426   -6.5332    4.4085 C   0  0  0  0  0  0  0  0  0  0  0  0
    2.5889   -6.7064    3.7028 C   0  0  0  0  0  0  0  0  0  0  0  0
    1.4435   -6.7611    4.4059 C   0  0  0  0  0  0  0  0  0  0  0  0
    0.1279   -6.9149    3.7563 C   0  0  0  0  0  0  0  0  0  0  0  0
   -0.9269   -6.8882    4.3903 O   0  0  0  0  0  0  0  0  0  0  0  0
    0.1323   -7.0741    2.2949 C   0  0  0  0  0  0  0  0  0  0  0  0
    1.2696   -7.0405    1.5961 C   0  0  0  0  0  0  0  0  0  0  0  0
    2.6766   -6.8025    2.1614 C   0  0  1  0  0  0  0  0  0  0  0  0
    3.4728   -8.0911    1.8227 C   0  0  0  0  0  0  0  0  0  0  0  0
    5.0367   -3.5208    2.0893 C   0  0  1  0  0  0  0  0  0  0  0  0
    6.3439   -3.9091    1.3502 C   0  0  0  0  0  0  0  0  0  0  0  0
    6.6539   -2.7481    0.3818 C   0  0  1  0  0  0  0  0  0  0  0  0
    7.0196   -3.2857   -1.0204 C   0  0  0  0  0  0  0  0  0  0  0  0
    7.6344   -2.3002   -1.8210 O   0  0  0  0  0  0  0  0  0  0  0  0
    5.4253   -1.7999    0.4503 C   0  0  1  0  0  0  0  0  0  0  0  0
    5.0421   -1.1976   -0.7818 O   0  0  0  0  0  0  0  0  0  0  0  0
    2.7964   -0.9760    1.1883 H   0  0  0  0  0  0  0  0  0  0  0  0
    3.8517   -1.0163    2.6004 H   0  0  0  0  0  0  0  0  0  0  0  0
    2.5550   -2.1769    2.4339 H   0  0  0  0  0  0  0  0  0  0  0  0
    2.8608   -2.7461   -0.5244 H   0  0  0  0  0  0  0  0  0  0  0  0
    4.1468   -3.9051   -0.6048 H   0  0  0  0  0  0  0  0  0  0  0  0
    1.8240   -4.0161    1.4033 H   0  0  0  0  0  0  0  0  0  0  0  0
    2.5053   -5.4048   -0.9345 H   0  0  0  0  0  0  0  0  0  0  0  0
    3.4107   -4.1983    3.2592 H   0  0  0  0  0  0  0  0  0  0  0  0
    5.6529   -6.1849    3.1130 H   0  0  0  0  0  0  0  0  0  0  0  0
    5.4846   -5.0010    4.3708 H   0  0  0  0  0  0  0  0  0  0  0  0
    4.3997   -7.5108    4.5293 H   0  0  0  0  0  0  0  0  0  0  0  0
    3.7753   -6.1583    5.4303 H   0  0  0  0  0  0  0  0  0  0  0  0
    1.4497   -6.6998    5.4929 H   0  0  0  0  0  0  0  0  0  0  0  0
   -0.8150   -7.2725    1.7975 H   0  0  0  0  0  0  0  0  0  0  0  0
    1.2101   -7.2311    0.5286 H   0  0  0  0  0  0  0  0  0  0  0  0
    2.9939   -8.9922    2.2131 H   0  0  0  0  0  0  0  0  0  0  0  0
    4.4911   -8.0858    2.2134 H   0  0  0  0  0  0  0  0  0  0  0  0
    3.5728   -8.2483    0.7485 H   0  0  0  0  0  0  0  0  0  0  0  0
    5.3643   -2.9210    2.9492 H   0  0  0  0  0  0  0  0  0  0  0  0
    7.1570   -4.1043    2.0561 H   0  0  0  0  0  0  0  0  0  0  0  0
    6.2502   -4.8276    0.7824 H   0  0  0  0  0  0  0  0  0  0  0  0
    7.5204   -2.2182    0.7783 H   0  0  0  0  0  0  0  0  0  0  0  0
    7.7412   -4.0981   -0.9157 H   0  0  0  0  0  0  0  0  0  0  0  0
    6.1557   -3.6971   -1.5431 H   0  0  0  0  0  0  0  0  0  0  0  0
    7.8969   -2.6865   -2.6541 H   0  0  0  0  0  0  0  0  0  0  0  0
    5.7084   -0.9733    1.1171 H   0  0  0  0  0  0  0  0  0  0  0  0
    4.1722   -0.8132   -0.6793 H   0  0  0  0  0  0  0  0  0  0  0  0
  2  1  1  1
  1 26  1  0
  1 27  1  0
  1 28  1  0
  2 19  1  0
  2 24  1  0
  2  3  1  0
  3  4  1  0
  3 29  1  0
  3 30  1  0
  4  5  1  0
  4  6  1  0
  4 31  1  1
  5 32  1  0
  6 17  1  0
  6  7  1  6
  6  8  1  0
  8  9  1  0
  8 19  1  0
  8 33  1  1
  9 10  1  0
  9 34  1  0
  9 35  1  0
 10 11  1  0
 10 36  1  0
 10 37  1  0
 11 17  1  0
 11 12  2  0
 12 13  1  0
 12 38  1  0
 13 14  2  0
 13 15  1  0
 15 16  2  0
 15 39  1  0
 16 17  1  0
 16 40  1  0
 17 18  1  1
 18 41  1  0
 18 42  1  0
 18 43  1  0
 19 20  1  0
 19 44  1  1
 20 21  1  0
 20 45  1  0
 20 46  1  0
 21 22  1  0
 21 24  1  0
 21 47  1  1
 22 23  1  0
 22 48  1  0
 22 49  1  0
 23 50  1  0
 24 25  1  0
 24 51  1  1
 25 52  1  0
M  END
>  <i_m_ct_stereo_status>  (325) 
1

>  <s_m_source_file>  (325) 
/var/tmp/pbs.5076255.sched01/tmpmzi298dc/117y2go66iu.sdf

>  <i_m_source_file_index>  (325) 
15

>  <i_lp_mmshare_version>  (325) 
48012

>  <i_f3d_flags>  (325) 
0

>  <s_epik_input>  (325) 
W09IXVtDSDJdW0NAQEhdKFtDQEhdMVtPSF0pW0NIMl1bQ0BASF0oW0NAQF0xMltDSDNdKVtDQEhdM1tDQF0oRikoW0NAQEhdKFtDSDJdMilbT0hdKVtDQEBdNChbQ0gzXSlDKFtDSDJdW0NIMl0zKT1bQ0hdQyg9TylbQ0hdPVtDSF00

>  <s_epik_cmdline>  (325) 
J2VwaWtfcHl0aG9uJywgJy1waHQnLCAnMi4wJywgJy1waCcsICc3LjAnLCAnLXRuJywgJzgnLCAnLW1hJywgJzIwMCcsICctaW1hZScsICc8aW5maWxlLm1hZT4nLCAnLW9tYWUnLCAnPG91dGZpbGUubWFlPic=

>  <r_lp_tautomer_probability>  (325) 
1

>  <r_epik_Ionization_Penalty>  (325) 
1.27377e-06

>  <r_epik_Ionization_Penalty_Charging>  (325) 
0

>  <r_epik_Ionization_Penalty_Neutral>  (325) 
1.27377e-06

>  <r_epik_State_Penalty>  (325) 
-0

>  <r_epik_Charging_Adjusted_Penalty>  (325) 
0

>  <i_epik_Tot_Q>  (325) 
0

>  <i_epik_Tot_abs_Q>  (325) 
0

>  <s_lp_Force_Field>  (325) 
OPLS3e

>  <r_lp_Energy>  (325) 
40.4441

>  <b_lp_Chiralities_Consistent>  (325) 
1

>  <s_lp_Variant>  (325) 
98:0-1

>  <s_i_glide_gridfile>  (325) 
pfpi4k_grid

>  <i_i_glide_lignum>  (325) 
15

>  <i_i_glide_rotatable_bonds>  (325) 
4

>  <r_i_docking_score>  (325) 
-4.53688

>  <r_i_glide_ligand_efficiency>  (325) 
-0.181475

>  <r_i_glide_ligand_efficiency_sa>  (325) 
-0.530636

>  <r_i_glide_ligand_efficiency_ln>  (325) 
-1.07538

>  <r_i_glide_gscore>  (325) 
-4.53688

>  <r_i_glide_lipo>  (325) 
-0.443295

>  <r_i_glide_hbond>  (325) 
-0.338434

>  <r_i_glide_metal>  (325) 
-0

>  <r_i_glide_rewards>  (325) 
-1.15342

>  <r_i_glide_evdw>  (325) 
-17.6422

>  <r_i_glide_ecoul>  (325) 
-12.2188

>  <r_i_glide_erotb>  (325) 
0.155221

>  <r_i_glide_esite>  (325) 
-0.0420296

>  <r_i_glide_emodel>  (325) 
-38.0396

>  <r_i_glide_energy>  (325) 
-29.8609

>  <r_i_glide_einternal>  (325) 
1.73713

>  <r_i_glide_intrahb_reward>  (325) 
-0

>  <i_i_glide_confnum>  (325) 
5

>  <i_i_glide_posenum>  (325) 
12

>  <r_i_glide_eff_state_penalty>  (325) 
0

>  <ligand_id>  (325) 
98

>  <original_smiles>  (325) 
CC12CC(O)C3(F)C(CCC4=CC(=O)C=CC43C)C1CC(CO)C2O

>  <smiles>  (325) 
[H]OC([H])([H])C1([H])C([H])([H])C2([H])C3([H])C([H])([H])C([H])([H])C4=C([H])C(=O)C([H])=C([H])C4(C([H])([H])[H])C3(F)C([H])(O[H])C([H])([H])C2(C([H])([H])[H])C1([H])O[H]

$$$$
98:0:2
     RDKit          3D

 52 55  0  0  1  0  0  0  0  0999 V2000
    3.0342   -1.7608    1.3811 C   0  0  0  0  0  0  0  0  0  0  0  0
    3.7827   -2.5942    0.3057 C   0  0  2  0  0  0  0  0  0  0  0  0
    2.7875   -3.5830   -0.3768 C   0  0  0  0  0  0  0  0  0  0  0  0
    2.3650   -4.7456    0.5603 C   0  0  1  0  0  0  0  0  0  0  0  0
    1.4805   -5.5036   -0.2175 O   0  0  0  0  0  0  0  0  0  0  0  0
    3.6159   -5.5828    0.9724 C   0  0  1  0  0  0  0  0  0  0  0  0
    4.2035   -5.9048   -0.1703 F   0  0  0  0  0  0  0  0  0  0  0  0
    4.5749   -4.6074    1.7438 C   0  0  1  0  0  0  0  0  0  0  0  0
    5.7627   -5.3449    2.3910 C   0  0  0  0  0  0  0  0  0  0  0  0
    5.2876   -6.3899    3.4259 C   0  0  0  0  0  0  0  0  0  0  0  0
    3.8259   -6.8170    3.2388 C   0  0  0  0  0  0  0  0  0  0  0  0
    3.0257   -7.0174    4.2918 C   0  0  0  0  0  0  0  0  0  0  0  0
    1.6041   -7.4035    4.1484 C   0  0  0  0  0  0  0  0  0  0  0  0
    0.8668   -7.5426    5.1154 O   0  0  0  0  0  0  0  0  0  0  0  0
    1.1225   -7.6220    2.7769 C   0  0  0  0  0  0  0  0  0  0  0  0
    1.9217   -7.4402    1.7298 C   0  0  0  0  0  0  0  0  0  0  0  0
    3.3816   -6.9563    1.7628 C   0  0  1  0  0  0  0  0  0  0  0  0
    4.2215   -8.1158    1.1387 C   0  0  0  0  0  0  0  0  0  0  0  0
    4.9885   -3.3483    0.9266 C   0  0  1  0  0  0  0  0  0  0  0  0
    6.0093   -3.5543   -0.2230 C   0  0  0  0  0  0  0  0  0  0  0  0
    5.7215   -2.4440   -1.2507 C   0  0  1  0  0  0  0  0  0  0  0  0
    5.7400   -2.9155   -2.7385 C   0  0  0  0  0  0  0  0  0  0  0  0
    4.8187   -3.9193   -3.0598 O   0  0  0  0  0  0  0  0  0  0  0  0
    4.4744   -1.6753   -0.7277 C   0  0  1  0  0  0  0  0  0  0  0  0
    3.6109   -1.1741   -1.7385 O   0  0  0  0  0  0  0  0  0  0  0  0
    2.2183   -1.2097    0.9165 H   0  0  0  0  0  0  0  0  0  0  0  0
    3.6771   -1.0361    1.8779 H   0  0  0  0  0  0  0  0  0  0  0  0
    2.5959   -2.3895    2.1555 H   0  0  0  0  0  0  0  0  0  0  0  0
    1.8775   -3.0482   -0.6850 H   0  0  0  0  0  0  0  0  0  0  0  0
    3.2424   -3.9758   -1.2824 H   0  0  0  0  0  0  0  0  0  0  0  0
    1.7998   -4.4246    1.4506 H   0  0  0  0  0  0  0  0  0  0  0  0
    1.9827   -5.7371   -0.9754 H   0  0  0  0  0  0  0  0  0  0  0  0
    4.0041   -4.2208    2.5897 H   0  0  0  0  0  0  0  0  0  0  0  0
    6.3553   -5.8267    1.6097 H   0  0  0  0  0  0  0  0  0  0  0  0
    6.4436   -4.6478    2.8752 H   0  0  0  0  0  0  0  0  0  0  0  0
    5.9181   -7.2758    3.3567 H   0  0  0  0  0  0  0  0  0  0  0  0
    5.4331   -6.0059    4.4404 H   0  0  0  0  0  0  0  0  0  0  0  0
    3.3988   -6.9137    5.3047 H   0  0  0  0  0  0  0  0  0  0  0  0
    0.1074   -7.9653    2.6346 H   0  0  0  0  0  0  0  0  0  0  0  0
    1.5030   -7.6643    0.7538 H   0  0  0  0  0  0  0  0  0  0  0  0
    4.0634   -9.0593    1.6527 H   0  0  0  0  0  0  0  0  0  0  0  0
    5.2964   -7.9200    1.1492 H   0  0  0  0  0  0  0  0  0  0  0  0
    3.9828   -8.2936    0.0872 H   0  0  0  0  0  0  0  0  0  0  0  0
    5.4851   -2.6714    1.6283 H   0  0  0  0  0  0  0  0  0  0  0  0
    7.0370   -3.5416    0.1510 H   0  0  0  0  0  0  0  0  0  0  0  0
    5.9167   -4.5151   -0.7148 H   0  0  0  0  0  0  0  0  0  0  0  0
    6.5437   -1.7441   -1.1471 H   0  0  0  0  0  0  0  0  0  0  0  0
    5.4303   -2.1012   -3.4037 H   0  0  0  0  0  0  0  0  0  0  0  0
    6.7425   -3.2704   -3.0114 H   0  0  0  0  0  0  0  0  0  0  0  0
    4.7044   -4.5118   -2.3309 H   0  0  0  0  0  0  0  0  0  0  0  0
    4.8432   -0.7983   -0.1986 H   0  0  0  0  0  0  0  0  0  0  0  0
    2.7369   -1.0548   -1.3780 H   0  0  0  0  0  0  0  0  0  0  0  0
  2  1  1  1
  1 26  1  0
  1 27  1  0
  1 28  1  0
  2 19  1  0
  2 24  1  0
  2  3  1  0
  3  4  1  0
  3 29  1  0
  3 30  1  0
  4  5  1  0
  4  6  1  0
  4 31  1  1
  5 32  1  0
  6 17  1  0
  6  7  1  6
  6  8  1  0
  8  9  1  0
  8 19  1  0
  8 33  1  1
  9 10  1  0
  9 34  1  0
  9 35  1  0
 10 11  1  0
 10 36  1  0
 10 37  1  0
 11 17  1  0
 11 12  2  0
 12 13  1  0
 12 38  1  0
 13 14  2  0
 13 15  1  0
 15 16  2  0
 15 39  1  0
 16 17  1  0
 16 40  1  0
 17 18  1  6
 18 41  1  0
 18 42  1  0
 18 43  1  0
 19 20  1  0
 19 44  1  1
 20 21  1  0
 20 45  1  0
 20 46  1  0
 21 22  1  0
 21 24  1  0
 21 47  1  6
 22 23  1  0
 22 48  1  0
 22 49  1  0
 23 50  1  0
 24 25  1  0
 24 51  1  1
 25 52  1  0
M  END
>  <i_m_ct_stereo_status>  (326) 
1

>  <s_m_source_file>  (326) 
/var/tmp/pbs.5076255.sched01/tmpmzi298dc/117y2go66iu.sdf

>  <i_m_source_file_index>  (326) 
15

>  <i_lp_mmshare_version>  (326) 
48012

>  <i_f3d_flags>  (326) 
0

>  <s_epik_input>  (326) 
W09IXVtDSDJdW0NAQEhdKFtDQEhdMVtPSF0pW0NIMl1bQ0BASF0oW0NAQF0xMltDSDNdKVtDQEhdM1tDQF0oRikoW0NAQEhdKFtDSDJdMilbT0hdKVtDQEBdNChbQ0gzXSlDKFtDSDJdW0NIMl0zKT1bQ0hdQyg9TylbQ0hdPVtDSF00

>  <s_epik_cmdline>  (326) 
J2VwaWtfcHl0aG9uJywgJy1waHQnLCAnMi4wJywgJy1waCcsICc3LjAnLCAnLXRuJywgJzgnLCAnLW1hJywgJzIwMCcsICctaW1hZScsICc8aW5maWxlLm1hZT4nLCAnLW9tYWUnLCAnPG91dGZpbGUubWFlPic=

>  <r_lp_tautomer_probability>  (326) 
1

>  <r_epik_Ionization_Penalty>  (326) 
1.27377e-06

>  <r_epik_Ionization_Penalty_Charging>  (326) 
0

>  <r_epik_Ionization_Penalty_Neutral>  (326) 
1.27377e-06

>  <r_epik_State_Penalty>  (326) 
-0

>  <r_epik_Charging_Adjusted_Penalty>  (326) 
0

>  <i_epik_Tot_Q>  (326) 
0

>  <i_epik_Tot_abs_Q>  (326) 
0

>  <s_lp_Force_Field>  (326) 
OPLS3e

>  <r_lp_Energy>  (326) 
40.4441

>  <b_lp_Chiralities_Consistent>  (326) 
1

>  <s_lp_Variant>  (326) 
98:0-1

>  <s_i_glide_gridfile>  (326) 
pfpi4k_grid

>  <i_i_glide_lignum>  (326) 
15

>  <i_i_glide_rotatable_bonds>  (326) 
4

>  <r_i_docking_score>  (326) 
-3.92787

>  <r_i_glide_ligand_efficiency>  (326) 
-0.157115

>  <r_i_glide_ligand_efficiency_sa>  (326) 
-0.459406

>  <r_i_glide_ligand_efficiency_ln>  (326) 
-0.931022

>  <r_i_glide_gscore>  (326) 
-3.92787

>  <r_i_glide_lipo>  (326) 
-0.355559

>  <r_i_glide_hbond>  (326) 
-0.496811

>  <r_i_glide_metal>  (326) 
-0

>  <r_i_glide_rewards>  (326) 
-1.01983

>  <r_i_glide_evdw>  (326) 
-19.3085

>  <r_i_glide_ecoul>  (326) 
-8.15785

>  <r_i_glide_erotb>  (326) 
0.155221

>  <r_i_glide_esite>  (326) 
-0.0217828

>  <r_i_glide_emodel>  (326) 
-32.3263

>  <r_i_glide_energy>  (326) 
-27.4663

>  <r_i_glide_einternal>  (326) 
3.73001

>  <r_i_glide_intrahb_reward>  (326) 
-0

>  <i_i_glide_confnum>  (326) 
2

>  <i_i_glide_posenum>  (326) 
10

>  <r_i_glide_eff_state_penalty>  (326) 
0

>  <ligand_id>  (326) 
98

>  <original_smiles>  (326) 
CC12CC(O)C3(F)C(CCC4=CC(=O)C=CC43C)C1CC(CO)C2O

>  <smiles>  (326) 
[H]OC([H])([H])C1([H])C([H])([H])C2([H])C3([H])C([H])([H])C([H])([H])C4=C([H])C(=O)C([H])=C([H])C4(C([H])([H])[H])C3(F)C([H])(O[H])C([H])([H])C2(C([H])([H])[H])C1([H])O[H]

$$$$
100:0:0
     RDKit          3D

 41 46  0  0  1  0  0  0  0  0999 V2000
    2.8845   -4.5672    4.0996 C   0  0  0  0  0  0  0  0  0  0  0  0
    3.3923   -3.9755    3.0279 C   0  0  0  0  0  0  0  0  0  0  0  0
    2.6129   -3.2477    1.9504 C   0  0  0  0  0  0  0  0  0  0  0  0
    3.6718   -2.3218    1.2891 C   0  0  2  0  0  0  0  0  0  0  0  0
    4.1491   -2.9796    0.0002 C   0  0  0  0  0  0  0  0  0  0  0  0
    3.7448   -2.3690   -1.3529 C   0  0  2  0  0  0  0  0  0  0  0  0
    4.2077   -3.1667   -2.5690 C   0  0  2  0  0  0  0  0  0  0  0  0
    5.7280   -2.8832   -2.5724 C   0  0  0  0  0  0  0  0  0  0  0  0
    5.8179   -1.5756   -1.9933 O   0  0  0  0  0  0  0  0  0  0  0  0
    4.5328   -1.1087   -1.7111 C   0  0  1  0  0  0  0  0  0  0  0  0
    3.9170   -0.4994   -2.8093 O   0  0  0  0  0  0  0  0  0  0  0  0
    3.9210   -1.2729   -3.9664 C   0  0  0  0  0  0  0  0  0  0  0  0
    3.5897   -2.6113   -3.7356 O   0  0  0  0  0  0  0  0  0  0  0  0
    4.8540   -4.1344    0.1657 C   0  0  0  0  0  0  0  0  0  0  0  0
    5.2926   -4.6756    1.5342 C   0  0  0  0  0  0  0  0  0  0  0  0
    4.8644   -3.7706    2.7346 C   0  0  1  0  0  0  0  0  0  0  0  0
    4.9037   -2.3180    2.2399 C   0  0  2  0  0  0  0  0  0  0  0  0
    4.7485   -1.1482    3.1156 O   0  0  0  0  0  0  0  0  0  0  0  0
    3.3922   -0.7164    2.9875 C   0  0  1  0  0  0  0  0  0  0  0  0
    2.8307    0.6369    2.4963 C   0  0  0  0  0  0  0  0  0  0  0  0
    2.6777    1.7723    2.9435 O   0  0  0  0  0  0  0  0  0  0  0  0
    2.3986    0.0660    1.3244 O   0  0  0  0  0  0  0  0  0  0  0  0
    3.4984   -0.8537    1.4732 C   0  0  2  0  0  0  0  0  0  0  0  0
    3.5260   -5.0202    4.8503 H   0  0  0  0  0  0  0  0  0  0  0  0
    1.8150   -4.6072    4.2751 H   0  0  0  0  0  0  0  0  0  0  0  0
    2.2188   -3.9718    1.2362 H   0  0  0  0  0  0  0  0  0  0  0  0
    1.7434   -2.7274    2.3527 H   0  0  0  0  0  0  0  0  0  0  0  0
    2.6668   -2.1779   -1.3622 H   0  0  0  0  0  0  0  0  0  0  0  0
    3.9610   -4.2243   -2.5072 H   0  0  0  0  0  0  0  0  0  0  0  0
    6.3016   -3.5735   -1.9571 H   0  0  0  0  0  0  0  0  0  0  0  0
    6.1646   -2.9526   -3.5611 H   0  0  0  0  0  0  0  0  0  0  0  0
    4.5655   -0.3527   -0.9291 H   0  0  0  0  0  0  0  0  0  0  0  0
    3.1898   -0.8486   -4.6574 H   0  0  0  0  0  0  0  0  0  0  0  0
    4.9029   -1.1891   -4.4395 H   0  0  0  0  0  0  0  0  0  0  0  0
    5.1766   -4.7446   -0.6621 H   0  0  0  0  0  0  0  0  0  0  0  0
    4.9086   -5.6923    1.6301 H   0  0  0  0  0  0  0  0  0  0  0  0
    6.3798   -4.7642    1.5037 H   0  0  0  0  0  0  0  0  0  0  0  0
    5.4897   -3.9632    3.6072 H   0  0  0  0  0  0  0  0  0  0  0  0
    5.8454   -2.1365    1.7139 H   0  0  0  0  0  0  0  0  0  0  0  0
    2.6588   -1.3310    3.5019 H   0  0  0  0  0  0  0  0  0  0  0  0
    4.3974   -0.3473    1.0875 H   0  0  0  0  0  0  0  0  0  0  0  0
  1  2  2  0
  1 24  1  0
  1 25  1  0
  2 16  1  0
  2  3  1  0
  4  3  1  1
  3 26  1  0
  3 27  1  0
  4 17  1  0
  4 23  1  0
  4  5  1  0
  5  6  1  0
  5 14  2  0
  6 10  1  0
  6  7  1  0
  6 28  1  1
  7 13  1  0
  7  8  1  0
  7 29  1  1
  8  9  1  0
  8 30  1  0
  8 31  1  0
  9 10  1  0
 10 11  1  0
 10 32  1  1
 11 12  1  0
 12 13  1  0
 12 33  1  0
 12 34  1  0
 14 15  1  0
 14 35  1  0
 15 16  1  0
 15 36  1  0
 15 37  1  0
 16 17  1  0
 16 38  1  1
 17 18  1  0
 17 39  1  6
 18 19  1  0
 19 23  1  0
 19 20  1  0
 19 40  1  1
 20 21  2  0
 20 22  1  0
 22 23  1  0
 23 41  1  6
M  END
>  <i_m_ct_stereo_status>  (327) 
1

>  <s_m_source_file>  (327) 
/var/tmp/pbs.5076255.sched01/tmpmzi298dc/117y2go66iu.sdf

>  <i_m_source_file_index>  (327) 
17

>  <i_lp_mmshare_version>  (327) 
48012

>  <i_f3d_flags>  (327) 
0

>  <s_epik_input>  (327) 
Tz1DMU9bQ0BIXTJbQ0BIXTFPW0NASF0oW0NAXTIzNClbQ0BASF0oQyg9W0NIMl0pW0NIMl0zKVtDSDJdW0NIXT1DNFtDQEhdKFtDQEhdNTYpW0NAQEhdKE9bQ0gyXTUpT1tDSDJdTzY=

>  <s_epik_cmdline>  (327) 
J2VwaWtfcHl0aG9uJywgJy1waHQnLCAnMi4wJywgJy1waCcsICc3LjAnLCAnLXRuJywgJzgnLCAnLW1hJywgJzIwMCcsICctaW1hZScsICc8aW5maWxlLm1hZT4nLCAnLW9tYWUnLCAnPG91dGZpbGUubWFlPic=

>  <r_lp_tautomer_probability>  (327) 
1

>  <r_epik_Ionization_Penalty>  (327) 
1.78919e-14

>  <r_epik_Ionization_Penalty_Charging>  (327) 
0

>  <r_epik_Ionization_Penalty_Neutral>  (327) 
1.78919e-14

>  <r_epik_State_Penalty>  (327) 
-0

>  <r_epik_Charging_Adjusted_Penalty>  (327) 
0

>  <i_epik_Tot_Q>  (327) 
0

>  <i_epik_Tot_abs_Q>  (327) 
0

>  <s_epik_Chemistry_Notes>  (327) 
This compound has an ester and may undergo hydrolysis at high or low pH. This compound contains an acetal/aminal-like group ( X-CH(R)-Y where X, Y are N, S, or O) that may be acid/base labile, releasing an aldehyde.

>  <s_lp_Force_Field>  (327) 
OPLS3e

>  <r_lp_Energy>  (327) 
71.4749

>  <b_lp_Chiralities_Consistent>  (327) 
1

>  <s_lp_Variant>  (327) 
100:0-1

>  <s_i_glide_gridfile>  (327) 
pfpi4k_grid

>  <i_i_glide_lignum>  (327) 
17

>  <i_i_glide_rotatable_bonds>  (327) 
1

>  <r_i_docking_score>  (327) 
-3.12076

>  <r_i_glide_ligand_efficiency>  (327) 
-0.135685

>  <r_i_glide_ligand_efficiency_sa>  (327) 
-0.385871

>  <r_i_glide_ligand_efficiency_ln>  (327) 
-0.754628

>  <r_i_glide_gscore>  (327) 
-3.12076

>  <r_i_glide_lipo>  (327) 
-0.323435

>  <r_i_glide_hbond>  (327) 
-0.0606809

>  <r_i_glide_metal>  (327) 
-0

>  <r_i_glide_rewards>  (327) 
-1.41612

>  <r_i_glide_evdw>  (327) 
-26.739

>  <r_i_glide_ecoul>  (327) 
-0.817185

>  <r_i_glide_erotb>  (327) 
0.183988

>  <r_i_glide_esite>  (327) 
-0.0449816

>  <r_i_glide_emodel>  (327) 
-31.3743

>  <r_i_glide_energy>  (327) 
-27.5562

>  <r_i_glide_einternal>  (327) 
2.36485

>  <r_i_glide_intrahb_reward>  (327) 
-0

>  <i_i_glide_confnum>  (327) 
4

>  <i_i_glide_posenum>  (327) 
1

>  <r_i_glide_eff_state_penalty>  (327) 
0

>  <ligand_id>  (327) 
100

>  <original_smiles>  (327) 
C=C1CC23C(C4C5COC4OCO5)=CCC1C2OC1C(=O)OC13

>  <smiles>  (327) 
[H]C([H])=C1C([H])([H])C23C(C4([H])C5([H])OC([H])([H])OC4([H])C([H])([H])O5)=C([H])C([H])([H])C1([H])C2([H])OC1([H])C(=O)OC13[H]

$$$$
100:0:1
     RDKit          3D

 41 46  0  0  1  0  0  0  0  0999 V2000
    3.0091   -6.3924    3.4018 C   0  0  0  0  0  0  0  0  0  0  0  0
    3.4716   -5.5332    2.5031 C   0  0  0  0  0  0  0  0  0  0  0  0
    2.6387   -4.6638    1.5826 C   0  0  0  0  0  0  0  0  0  0  0  0
    3.6128   -3.5197    1.1786 C   0  0  2  0  0  0  0  0  0  0  0  0
    4.1715   -3.8336   -0.2073 C   0  0  0  0  0  0  0  0  0  0  0  0
    3.7353   -2.9643   -1.4122 C   0  0  2  0  0  0  0  0  0  0  0  0
    4.3270   -3.4012   -2.7573 C   0  0  2  0  0  0  0  0  0  0  0  0
    5.8093   -2.9547   -2.6009 C   0  0  0  0  0  0  0  0  0  0  0  0
    5.7399   -1.7861   -1.7742 O   0  0  0  0  0  0  0  0  0  0  0  0
    4.3848   -1.5533   -1.4276 C   0  0  1  0  0  0  0  0  0  0  0  0
    3.6950   -0.7930   -2.3882 O   0  0  0  0  0  0  0  0  0  0  0  0
    3.8529   -1.2850   -3.6979 C   0  0  0  0  0  0  0  0  0  0  0  0
    3.6790   -2.6851   -3.8131 O   0  0  0  0  0  0  0  0  0  0  0  0
    4.9789   -4.9182   -0.2777 C   0  0  0  0  0  0  0  0  0  0  0  0
    5.4465   -5.7115    0.9507 C   0  0  0  0  0  0  0  0  0  0  0  0
    4.9193   -5.1393    2.3084 C   0  0  1  0  0  0  0  0  0  0  0  0
    4.8297   -3.6182    2.1419 C   0  0  2  0  0  0  0  0  0  0  0  0
    4.5527   -2.6957    3.2514 O   0  0  0  0  0  0  0  0  0  0  0  0
    3.1661   -2.3638    3.1818 C   0  0  1  0  0  0  0  0  0  0  0  0
    2.4856   -0.9936    2.9786 C   0  0  0  0  0  0  0  0  0  0  0  0
    2.2545    0.0185    3.6405 O   0  0  0  0  0  0  0  0  0  0  0  0
    2.1159   -1.3354    1.7009 O   0  0  0  0  0  0  0  0  0  0  0  0
    3.3056   -2.1519    1.6768 C   0  0  2  0  0  0  0  0  0  0  0  0
    3.6836   -6.9346    4.0561 H   0  0  0  0  0  0  0  0  0  0  0  0
    1.9462   -6.5632    3.5269 H   0  0  0  0  0  0  0  0  0  0  0  0
    2.3182   -5.2454    0.7144 H   0  0  0  0  0  0  0  0  0  0  0  0
    1.7247   -4.3276    2.0740 H   0  0  0  0  0  0  0  0  0  0  0  0
    2.6378   -2.8970   -1.4429 H   0  0  0  0  0  0  0  0  0  0  0  0
    4.2253   -4.4641   -2.9742 H   0  0  0  0  0  0  0  0  0  0  0  0
    6.4173   -3.7141   -2.0928 H   0  0  0  0  0  0  0  0  0  0  0  0
    6.2720   -2.7541   -3.5646 H   0  0  0  0  0  0  0  0  0  0  0  0
    4.2858   -1.0286   -0.4818 H   0  0  0  0  0  0  0  0  0  0  0  0
    3.0891   -0.7939   -4.3176 H   0  0  0  0  0  0  0  0  0  0  0  0
    4.8547   -0.9890   -4.0847 H   0  0  0  0  0  0  0  0  0  0  0  0
    5.3726   -5.2848   -1.2126 H   0  0  0  0  0  0  0  0  0  0  0  0
    5.1594   -6.7552    0.8137 H   0  0  0  0  0  0  0  0  0  0  0  0
    6.5374   -5.6925    0.9401 H   0  0  0  0  0  0  0  0  0  0  0  0
    5.5501   -5.4611    3.1392 H   0  0  0  0  0  0  0  0  0  0  0  0
    5.7533   -3.2406    1.6982 H   0  0  0  0  0  0  0  0  0  0  0  0
    2.4872   -3.1360    3.5227 H   0  0  0  0  0  0  0  0  0  0  0  0
    4.1541   -1.4970    1.4150 H   0  0  0  0  0  0  0  0  0  0  0  0
  1  2  2  0
  1 24  1  0
  1 25  1  0
  2 16  1  0
  2  3  1  0
  4  3  1  1
  3 26  1  0
  3 27  1  0
  4 17  1  0
  4 23  1  0
  4  5  1  0
  5  6  1  0
  5 14  2  0
  6 10  1  0
  6  7  1  0
  6 28  1  6
  7 13  1  0
  7  8  1  0
  7 29  1  6
  8  9  1  0
  8 30  1  0
  8 31  1  0
  9 10  1  0
 10 11  1  0
 10 32  1  1
 11 12  1  0
 12 13  1  0
 12 33  1  0
 12 34  1  0
 14 15  1  0
 14 35  1  0
 15 16  1  0
 15 36  1  0
 15 37  1  0
 16 17  1  0
 16 38  1  1
 17 18  1  0
 17 39  1  6
 18 19  1  0
 19 23  1  0
 19 20  1  0
 19 40  1  6
 20 21  2  0
 20 22  1  0
 22 23  1  0
 23 41  1  1
M  END
>  <i_m_ct_stereo_status>  (328) 
1

>  <s_m_source_file>  (328) 
/var/tmp/pbs.5076255.sched01/tmpmzi298dc/117y2go66iu.sdf

>  <i_m_source_file_index>  (328) 
17

>  <i_lp_mmshare_version>  (328) 
48012

>  <i_f3d_flags>  (328) 
0

>  <s_epik_input>  (328) 
Tz1DMU9bQ0BIXTJbQ0BIXTFPW0NASF0oW0NAXTIzNClbQ0BASF0oQyg9W0NIMl0pW0NIMl0zKVtDSDJdW0NIXT1DNFtDQEhdKFtDQEhdNTYpW0NAQEhdKE9bQ0gyXTUpT1tDSDJdTzY=

>  <s_epik_cmdline>  (328) 
J2VwaWtfcHl0aG9uJywgJy1waHQnLCAnMi4wJywgJy1waCcsICc3LjAnLCAnLXRuJywgJzgnLCAnLW1hJywgJzIwMCcsICctaW1hZScsICc8aW5maWxlLm1hZT4nLCAnLW9tYWUnLCAnPG91dGZpbGUubWFlPic=

>  <r_lp_tautomer_probability>  (328) 
1

>  <r_epik_Ionization_Penalty>  (328) 
1.78919e-14

>  <r_epik_Ionization_Penalty_Charging>  (328) 
0

>  <r_epik_Ionization_Penalty_Neutral>  (328) 
1.78919e-14

>  <r_epik_State_Penalty>  (328) 
-0

>  <r_epik_Charging_Adjusted_Penalty>  (328) 
0

>  <i_epik_Tot_Q>  (328) 
0

>  <i_epik_Tot_abs_Q>  (328) 
0

>  <s_epik_Chemistry_Notes>  (328) 
This compound has an ester and may undergo hydrolysis at high or low pH. This compound contains an acetal/aminal-like group ( X-CH(R)-Y where X, Y are N, S, or O) that may be acid/base labile, releasing an aldehyde.

>  <s_lp_Force_Field>  (328) 
OPLS3e

>  <r_lp_Energy>  (328) 
71.4749

>  <b_lp_Chiralities_Consistent>  (328) 
1

>  <s_lp_Variant>  (328) 
100:0-1

>  <s_i_glide_gridfile>  (328) 
pfpi4k_grid

>  <i_i_glide_lignum>  (328) 
17

>  <i_i_glide_rotatable_bonds>  (328) 
1

>  <r_i_docking_score>  (328) 
-3.11609

>  <r_i_glide_ligand_efficiency>  (328) 
-0.135482

>  <r_i_glide_ligand_efficiency_sa>  (328) 
-0.385294

>  <r_i_glide_ligand_efficiency_ln>  (328) 
-0.7535

>  <r_i_glide_gscore>  (328) 
-3.11609

>  <r_i_glide_lipo>  (328) 
-0.308429

>  <r_i_glide_hbond>  (328) 
-0.0604318

>  <r_i_glide_metal>  (328) 
-0

>  <r_i_glide_rewards>  (328) 
-1.51655

>  <r_i_glide_evdw>  (328) 
-24.4737

>  <r_i_glide_ecoul>  (328) 
-0.943946

>  <r_i_glide_erotb>  (328) 
0.183988

>  <r_i_glide_esite>  (328) 
-0.0493976

>  <r_i_glide_emodel>  (328) 
-28.8694

>  <r_i_glide_energy>  (328) 
-25.4177

>  <r_i_glide_einternal>  (328) 
2.7686

>  <r_i_glide_intrahb_reward>  (328) 
-0

>  <i_i_glide_confnum>  (328) 
2

>  <i_i_glide_posenum>  (328) 
20

>  <r_i_glide_eff_state_penalty>  (328) 
0

>  <ligand_id>  (328) 
100

>  <original_smiles>  (328) 
C=C1CC23C(C4C5COC4OCO5)=CCC1C2OC1C(=O)OC13

>  <smiles>  (328) 
[H]C([H])=C1C([H])([H])C23C(C4([H])C5([H])OC([H])([H])OC4([H])C([H])([H])O5)=C([H])C([H])([H])C1([H])C2([H])OC1([H])C(=O)OC13[H]

$$$$
100:0:2
     RDKit          3D

 41 46  0  0  1  0  0  0  0  0999 V2000
    4.9990   -3.4395   -3.0640 C   0  0  0  0  0  0  0  0  0  0  0  0
    4.6863   -3.0588   -1.8146 C   0  0  0  0  0  0  0  0  0  0  0  0
    3.3121   -3.1126   -1.1865 C   0  0  0  0  0  0  0  0  0  0  0  0
    3.6139   -3.1005    0.3426 C   0  0  2  0  0  0  0  0  0  0  0  0
    3.4132   -1.6852    0.8704 C   0  0  0  0  0  0  0  0  0  0  0  0
    2.2162   -1.3769    1.7828 C   0  0  2  0  0  0  0  0  0  0  0  0
    2.0160    0.0998    2.0960 C   0  0  2  0  0  0  0  0  0  0  0  0
    3.1609    0.3777    3.1066 C   0  0  0  0  0  0  0  0  0  0  0  0
    3.3413   -0.8818    3.7712 O   0  0  0  0  0  0  0  0  0  0  0  0
    2.4226   -1.8146    3.2419 C   0  0  1  0  0  0  0  0  0  0  0  0
    1.1704   -1.7534    3.8811 O   0  0  0  0  0  0  0  0  0  0  0  0
    0.6575   -0.4529    3.9684 C   0  0  0  0  0  0  0  0  0  0  0  0
    0.7421    0.2358    2.7484 O   0  0  0  0  0  0  0  0  0  0  0  0
    4.2972   -0.7638    0.3941 C   0  0  0  0  0  0  0  0  0  0  0  0
    5.5165   -1.1183   -0.4572 C   0  0  0  0  0  0  0  0  0  0  0  0
    5.6668   -2.6495   -0.7467 C   0  0  1  0  0  0  0  0  0  0  0  0
    5.1365   -3.3892    0.4901 C   0  0  2  0  0  0  0  0  0  0  0  0
    5.2735   -4.8351    0.7001 O   0  0  0  0  0  0  0  0  0  0  0  0
    4.0218   -5.4151    0.3427 C   0  0  1  0  0  0  0  0  0  0  0  0
    3.0299   -6.2411    1.1882 C   0  0  0  0  0  0  0  0  0  0  0  0
    2.9385   -7.3865    1.6317 O   0  0  0  0  0  0  0  0  0  0  0  0
    2.1249   -5.2042    1.1840 O   0  0  0  0  0  0  0  0  0  0  0  0
    3.2755   -4.3316    1.1104 C   0  0  2  0  0  0  0  0  0  0  0  0
    6.0221   -3.4176   -3.4115 H   0  0  0  0  0  0  0  0  0  0  0  0
    4.2370   -3.7943   -3.7416 H   0  0  0  0  0  0  0  0  0  0  0  0
    2.7313   -2.2382   -1.4832 H   0  0  0  0  0  0  0  0  0  0  0  0
    2.7325   -3.9705   -1.5264 H   0  0  0  0  0  0  0  0  0  0  0  0
    1.3232   -1.8416    1.3587 H   0  0  0  0  0  0  0  0  0  0  0  0
    2.0275    0.7326    1.2016 H   0  0  0  0  0  0  0  0  0  0  0  0
    4.1062    0.6324    2.6129 H   0  0  0  0  0  0  0  0  0  0  0  0
    2.9333    1.1902    3.7967 H   0  0  0  0  0  0  0  0  0  0  0  0
    2.7902   -2.8358    3.3484 H   0  0  0  0  0  0  0  0  0  0  0  0
   -0.3931   -0.5257    4.2464 H   0  0  0  0  0  0  0  0  0  0  0  0
    1.1720    0.0957    4.7671 H   0  0  0  0  0  0  0  0  0  0  0  0
    4.2071    0.2925    0.6065 H   0  0  0  0  0  0  0  0  0  0  0  0
    5.4577   -0.5401   -1.3822 H   0  0  0  0  0  0  0  0  0  0  0  0
    6.3927   -0.7551    0.0853 H   0  0  0  0  0  0  0  0  0  0  0  0
    6.6959   -2.9020   -1.0033 H   0  0  0  0  0  0  0  0  0  0  0  0
    5.5618   -2.9472    1.3951 H   0  0  0  0  0  0  0  0  0  0  0  0
    3.8409   -5.4816   -0.7210 H   0  0  0  0  0  0  0  0  0  0  0  0
    3.6730   -4.2193    2.1324 H   0  0  0  0  0  0  0  0  0  0  0  0
  1  2  2  0
  1 24  1  0
  1 25  1  0
  2 16  1  0
  2  3  1  0
  4  3  1  6
  3 26  1  0
  3 27  1  0
  4 17  1  0
  4 23  1  0
  4  5  1  0
  5  6  1  0
  5 14  2  0
  6 10  1  0
  6  7  1  0
  6 28  1  6
  7 13  1  0
  7  8  1  0
  7 29  1  6
  8  9  1  0
  8 30  1  0
  8 31  1  0
  9 10  1  0
 10 11  1  0
 10 32  1  6
 11 12  1  0
 12 13  1  0
 12 33  1  0
 12 34  1  0
 14 15  1  0
 14 35  1  0
 15 16  1  0
 15 36  1  0
 15 37  1  0
 16 17  1  0
 16 38  1  6
 17 18  1  0
 17 39  1  1
 18 19  1  0
 19 23  1  0
 19 20  1  0
 19 40  1  6
 20 21  2  0
 20 22  1  0
 22 23  1  0
 23 41  1  1
M  END
>  <i_m_ct_stereo_status>  (329) 
1

>  <s_m_source_file>  (329) 
/var/tmp/pbs.5076255.sched01/tmpmzi298dc/117y2go66iu.sdf

>  <i_m_source_file_index>  (329) 
17

>  <i_lp_mmshare_version>  (329) 
48012

>  <i_f3d_flags>  (329) 
0

>  <s_epik_input>  (329) 
Tz1DMU9bQ0BIXTJbQ0BIXTFPW0NASF0oW0NAXTIzNClbQ0BASF0oQyg9W0NIMl0pW0NIMl0zKVtDSDJdW0NIXT1DNFtDQEhdKFtDQEhdNTYpW0NAQEhdKE9bQ0gyXTUpT1tDSDJdTzY=

>  <s_epik_cmdline>  (329) 
J2VwaWtfcHl0aG9uJywgJy1waHQnLCAnMi4wJywgJy1waCcsICc3LjAnLCAnLXRuJywgJzgnLCAnLW1hJywgJzIwMCcsICctaW1hZScsICc8aW5maWxlLm1hZT4nLCAnLW9tYWUnLCAnPG91dGZpbGUubWFlPic=

>  <r_lp_tautomer_probability>  (329) 
1

>  <r_epik_Ionization_Penalty>  (329) 
1.78919e-14

>  <r_epik_Ionization_Penalty_Charging>  (329) 
0

>  <r_epik_Ionization_Penalty_Neutral>  (329) 
1.78919e-14

>  <r_epik_State_Penalty>  (329) 
-0

>  <r_epik_Charging_Adjusted_Penalty>  (329) 
0

>  <i_epik_Tot_Q>  (329) 
0

>  <i_epik_Tot_abs_Q>  (329) 
0

>  <s_epik_Chemistry_Notes>  (329) 
This compound has an ester and may undergo hydrolysis at high or low pH. This compound contains an acetal/aminal-like group ( X-CH(R)-Y where X, Y are N, S, or O) that may be acid/base labile, releasing an aldehyde.

>  <s_lp_Force_Field>  (329) 
OPLS3e

>  <r_lp_Energy>  (329) 
71.4749

>  <b_lp_Chiralities_Consistent>  (329) 
1

>  <s_lp_Variant>  (329) 
100:0-1

>  <s_i_glide_gridfile>  (329) 
pfpi4k_grid

>  <i_i_glide_lignum>  (329) 
17

>  <i_i_glide_rotatable_bonds>  (329) 
1

>  <r_i_docking_score>  (329) 
-3.0471

>  <r_i_glide_ligand_efficiency>  (329) 
-0.132482

>  <r_i_glide_ligand_efficiency_sa>  (329) 
-0.376762

>  <r_i_glide_ligand_efficiency_ln>  (329) 
-0.736815

>  <r_i_glide_gscore>  (329) 
-3.0471

>  <r_i_glide_lipo>  (329) 
-0.364294

>  <r_i_glide_hbond>  (329) 
-0.0248945

>  <r_i_glide_metal>  (329) 
-0

>  <r_i_glide_rewards>  (329) 
-1.26163

>  <r_i_glide_evdw>  (329) 
-26.2072

>  <r_i_glide_ecoul>  (329) 
-1.72438

>  <r_i_glide_erotb>  (329) 
0.183988

>  <r_i_glide_esite>  (329) 
-0.0112461

>  <r_i_glide_emodel>  (329) 
-31.6709

>  <r_i_glide_energy>  (329) 
-27.9316

>  <r_i_glide_einternal>  (329) 
2.34676

>  <r_i_glide_intrahb_reward>  (329) 
-0

>  <i_i_glide_confnum>  (329) 
4

>  <i_i_glide_posenum>  (329) 
12

>  <r_i_glide_eff_state_penalty>  (329) 
0

>  <ligand_id>  (329) 
100

>  <original_smiles>  (329) 
C=C1CC23C(C4C5COC4OCO5)=CCC1C2OC1C(=O)OC13

>  <smiles>  (329) 
[H]C([H])=C1C([H])([H])C23C(C4([H])C5([H])OC([H])([H])OC4([H])C([H])([H])O5)=C([H])C([H])([H])C1([H])C2([H])OC1([H])C(=O)OC13[H]

$$$$
100:1:0
     RDKit          3D

 41 46  0  0  1  0  0  0  0  0999 V2000
    2.7606   -5.2457    2.2318 C   0  0  0  0  0  0  0  0  0  0  0  0
    3.5660   -4.4382    1.5291 C   0  0  0  0  0  0  0  0  0  0  0  0
    3.2043   -3.0729    0.9837 C   0  0  0  0  0  0  0  0  0  0  0  0
    4.5470   -2.5072    0.4216 C   0  0  2  0  0  0  0  0  0  0  0  0
    4.7194   -2.9472   -1.0351 C   0  0  0  0  0  0  0  0  0  0  0  0
    4.4790   -1.9226   -2.1518 C   0  0  2  0  0  0  0  0  0  0  0  0
    3.0483   -1.4513   -2.2357 C   0  0  2  0  0  0  0  0  0  0  0  0
    2.3375   -2.6946   -2.8197 C   0  0  0  0  0  0  0  0  0  0  0  0
    3.3272   -3.2700   -3.6770 O   0  0  0  0  0  0  0  0  0  0  0  0
    4.5023   -2.5075   -3.5611 C   0  0  1  0  0  0  0  0  0  0  0  0
    4.5196   -1.4342   -4.4613 O   0  0  0  0  0  0  0  0  0  0  0  0
    3.3780   -0.6475   -4.4197 C   0  0  0  0  0  0  0  0  0  0  0  0
    3.0244   -0.3287   -3.1193 O   0  0  0  0  0  0  0  0  0  0  0  0
    5.0187   -4.2493   -1.2552 C   0  0  0  0  0  0  0  0  0  0  0  0
    5.2268   -5.2743   -0.1433 C   0  0  0  0  0  0  0  0  0  0  0  0
    5.0308   -4.6790    1.2729 C   0  0  1  0  0  0  0  0  0  0  0  0
    5.5845   -3.2541    1.2655 C   0  0  2  0  0  0  0  0  0  0  0  0
    5.5730   -2.5215    2.4911 O   0  0  0  0  0  0  0  0  0  0  0  0
    5.6319   -1.1378    2.1285 C   0  0  2  0  0  0  0  0  0  0  0  0
    4.4224   -0.3314    2.6252 C   0  0  0  0  0  0  0  0  0  0  0  0
    4.0685    0.1545    3.6963 O   0  0  0  0  0  0  0  0  0  0  0  0
    3.8113   -0.3111    1.4058 O   0  0  0  0  0  0  0  0  0  0  0  0
    4.8986   -1.0745    0.8011 C   0  0  2  0  0  0  0  0  0  0  0  0
    3.1269   -6.1841    2.6241 H   0  0  0  0  0  0  0  0  0  0  0  0
    1.7382   -4.9723    2.4357 H   0  0  0  0  0  0  0  0  0  0  0  0
    2.4291   -3.1504    0.2239 H   0  0  0  0  0  0  0  0  0  0  0  0
    2.7953   -2.4856    1.8057 H   0  0  0  0  0  0  0  0  0  0  0  0
    5.1871   -1.0908   -2.0792 H   0  0  0  0  0  0  0  0  0  0  0  0
    2.6679   -1.1354   -1.2633 H   0  0  0  0  0  0  0  0  0  0  0  0
    2.0987   -3.3963   -2.0160 H   0  0  0  0  0  0  0  0  0  0  0  0
    1.4185   -2.4678   -3.3630 H   0  0  0  0  0  0  0  0  0  0  0  0
    5.3936   -3.1023   -3.7639 H   0  0  0  0  0  0  0  0  0  0  0  0
    3.5828    0.2742   -4.9586 H   0  0  0  0  0  0  0  0  0  0  0  0
    2.5554   -1.1410   -4.9291 H   0  0  0  0  0  0  0  0  0  0  0  0
    5.1097   -4.6548   -2.2503 H   0  0  0  0  0  0  0  0  0  0  0  0
    4.5571   -6.1205   -0.3197 H   0  0  0  0  0  0  0  0  0  0  0  0
    6.2414   -5.6539   -0.2531 H   0  0  0  0  0  0  0  0  0  0  0  0
    5.4877   -5.3161    2.0281 H   0  0  0  0  0  0  0  0  0  0  0  0
    6.5851   -3.2000    0.8357 H   0  0  0  0  0  0  0  0  0  0  0  0
    6.6056   -0.6537    2.1574 H   0  0  0  0  0  0  0  0  0  0  0  0
    5.4594   -0.4981    0.0666 H   0  0  0  0  0  0  0  0  0  0  0  0
  1  2  2  0
  1 24  1  0
  1 25  1  0
  2 16  1  0
  2  3  1  0
  4  3  1  1
  3 26  1  0
  3 27  1  0
  4 17  1  0
  4 23  1  0
  4  5  1  0
  5  6  1  0
  5 14  2  0
  6 10  1  0
  6  7  1  0
  6 28  1  6
  7 13  1  0
  7  8  1  0
  7 29  1  1
  8  9  1  0
  8 30  1  0
  8 31  1  0
  9 10  1  0
 10 11  1  0
 10 32  1  1
 11 12  1  0
 12 13  1  0
 12 33  1  0
 12 34  1  0
 14 15  1  0
 14 35  1  0
 15 16  1  0
 15 36  1  0
 15 37  1  0
 16 17  1  0
 16 38  1  1
 17 18  1  0
 17 39  1  6
 18 19  1  0
 19 23  1  0
 19 20  1  0
 19 40  1  6
 20 21  2  0
 20 22  1  0
 22 23  1  0
 23 41  1  6
M  END
>  <i_m_ct_stereo_status>  (330) 
1

>  <s_m_source_file>  (330) 
/var/tmp/pbs.5076255.sched01/tmpmzi298dc/117y2go66iu.sdf

>  <i_m_source_file_index>  (330) 
18

>  <i_lp_mmshare_version>  (330) 
48012

>  <i_f3d_flags>  (330) 
0

>  <s_epik_input>  (330) 
Tz1DMU9bQ0BIXTJbQ0BIXTFPW0NASF0oW0NAXTIzNClbQ0BASF0oQyg9W0NIMl0pW0NIMl0zKVtDSDJdW0NIXT1DNFtDQEhdKFtDQEhdNTYpW0NAQEhdKE9bQ0gyXTUpT1tDSDJdTzY=

>  <s_epik_cmdline>  (330) 
J2VwaWtfcHl0aG9uJywgJy1waHQnLCAnMi4wJywgJy1waCcsICc3LjAnLCAnLXRuJywgJzgnLCAnLW1hJywgJzIwMCcsICctaW1hZScsICc8aW5maWxlLm1hZT4nLCAnLW9tYWUnLCAnPG91dGZpbGUubWFlPic=

>  <r_lp_tautomer_probability>  (330) 
1

>  <r_epik_Ionization_Penalty>  (330) 
1.78919e-14

>  <r_epik_Ionization_Penalty_Charging>  (330) 
0

>  <r_epik_Ionization_Penalty_Neutral>  (330) 
1.78919e-14

>  <r_epik_State_Penalty>  (330) 
-0

>  <r_epik_Charging_Adjusted_Penalty>  (330) 
0

>  <i_epik_Tot_Q>  (330) 
0

>  <i_epik_Tot_abs_Q>  (330) 
0

>  <s_epik_Chemistry_Notes>  (330) 
This compound has an ester and may undergo hydrolysis at high or low pH. This compound contains an acetal/aminal-like group ( X-CH(R)-Y where X, Y are N, S, or O) that may be acid/base labile, releasing an aldehyde.

>  <s_lp_Force_Field>  (330) 
OPLS3e

>  <r_lp_Energy>  (330) 
36.329

>  <b_lp_Chiralities_Consistent>  (330) 
1

>  <s_lp_Variant>  (330) 
100:0-2

>  <s_i_glide_gridfile>  (330) 
pfpi4k_grid

>  <i_i_glide_lignum>  (330) 
18

>  <i_i_glide_rotatable_bonds>  (330) 
1

>  <r_i_docking_score>  (330) 
-3.80497

>  <r_i_glide_ligand_efficiency>  (330) 
-0.165434

>  <r_i_glide_ligand_efficiency_sa>  (330) 
-0.470471

>  <r_i_glide_ligand_efficiency_ln>  (330) 
-0.920076

>  <r_i_glide_gscore>  (330) 
-3.80497

>  <r_i_glide_lipo>  (330) 
-0.318495

>  <r_i_glide_hbond>  (330) 
-0.32

>  <r_i_glide_metal>  (330) 
-0

>  <r_i_glide_rewards>  (330) 
-1.79264

>  <r_i_glide_evdw>  (330) 
-24.2556

>  <r_i_glide_ecoul>  (330) 
-2.30032

>  <r_i_glide_erotb>  (330) 
0.183988

>  <r_i_glide_esite>  (330) 
0

>  <r_i_glide_emodel>  (330) 
-32.8981

>  <r_i_glide_energy>  (330) 
-26.5559

>  <r_i_glide_einternal>  (330) 
0.0249388

>  <r_i_glide_intrahb_reward>  (330) 
-0

>  <i_i_glide_confnum>  (330) 
3

>  <i_i_glide_posenum>  (330) 
39

>  <r_i_glide_eff_state_penalty>  (330) 
0

>  <ligand_id>  (330) 
100

>  <original_smiles>  (330) 
C=C1CC23C(C4C5COC4OCO5)=CCC1C2OC1C(=O)OC13

>  <smiles>  (330) 
[H]C([H])=C1C([H])([H])C23C(C4([H])C5([H])OC([H])([H])OC4([H])C([H])([H])O5)=C([H])C([H])([H])C1([H])C2([H])OC1([H])C(=O)OC13[H]

$$$$
100:1:1
     RDKit          3D

 41 46  0  0  1  0  0  0  0  0999 V2000
    2.3154   -4.8312    3.6447 C   0  0  0  0  0  0  0  0  0  0  0  0
    3.0645   -4.1452    2.7746 C   0  0  0  0  0  0  0  0  0  0  0  0
    2.6766   -2.8553    2.0750 C   0  0  0  0  0  0  0  0  0  0  0  0
    3.9682   -2.4021    1.3287 C   0  0  2  0  0  0  0  0  0  0  0  0
    3.9720   -3.0551   -0.0661 C   0  0  0  0  0  0  0  0  0  0  0  0
    3.6727   -2.1845   -1.3096 C   0  0  2  0  0  0  0  0  0  0  0  0
    3.4830   -2.9721   -2.6094 C   0  0  2  0  0  0  0  0  0  0  0  0
    4.9430   -3.3649   -2.9841 C   0  0  0  0  0  0  0  0  0  0  0  0
    5.7276   -2.3003   -2.4320 O   0  0  0  0  0  0  0  0  0  0  0  0
    4.8666   -1.3646   -1.8324 C   0  0  1  0  0  0  0  0  0  0  0  0
    4.3572   -0.4110   -2.7251 O   0  0  0  0  0  0  0  0  0  0  0  0
    3.8137   -0.9966   -3.8822 C   0  0  0  0  0  0  0  0  0  0  0  0
    2.9552   -2.0826   -3.6008 O   0  0  0  0  0  0  0  0  0  0  0  0
    4.1733   -4.3970   -0.1121 C   0  0  0  0  0  0  0  0  0  0  0  0
    4.5306   -5.2572    1.0881 C   0  0  0  0  0  0  0  0  0  0  0  0
    4.4959   -4.4645    2.4173 C   0  0  1  0  0  0  0  0  0  0  0  0
    5.0640   -3.0644    2.1664 C   0  0  2  0  0  0  0  0  0  0  0  0
    5.1807   -2.1831    3.2884 O   0  0  0  0  0  0  0  0  0  0  0  0
    5.2191   -0.8572    2.7540 C   0  0  2  0  0  0  0  0  0  0  0  0
    4.0788    0.0538    3.2803 C   0  0  0  0  0  0  0  0  0  0  0  0
    3.8561    0.7033    4.2872 O   0  0  0  0  0  0  0  0  0  0  0  0
    3.3324   -0.1065    2.1395 O   0  0  0  0  0  0  0  0  0  0  0  0
    4.3566   -0.9344    1.5118 C   0  0  2  0  0  0  0  0  0  0  0  0
    2.7033   -5.7193    4.1289 H   0  0  0  0  0  0  0  0  0  0  0  0
    1.3167   -4.5041    3.9037 H   0  0  0  0  0  0  0  0  0  0  0  0
    1.8346   -3.0064    1.3969 H   0  0  0  0  0  0  0  0  0  0  0  0
    2.3461   -2.1617    2.8473 H   0  0  0  0  0  0  0  0  0  0  0  0
    2.8124   -1.5388   -1.0927 H   0  0  0  0  0  0  0  0  0  0  0  0
    2.7867   -3.8108   -2.5152 H   0  0  0  0  0  0  0  0  0  0  0  0
    5.2839   -4.2855   -2.5002 H   0  0  0  0  0  0  0  0  0  0  0  0
    5.0935   -3.4731   -4.0634 H   0  0  0  0  0  0  0  0  0  0  0  0
    5.4186   -0.8135   -1.0864 H   0  0  0  0  0  0  0  0  0  0  0  0
    3.2335   -0.2262   -4.3964 H   0  0  0  0  0  0  0  0  0  0  0  0
    4.6392   -1.3043   -4.5523 H   0  0  0  0  0  0  0  0  0  0  0  0
    4.1043   -4.9674   -1.0200 H   0  0  0  0  0  0  0  0  0  0  0  0
    3.8470   -6.1051    1.1086 H   0  0  0  0  0  0  0  0  0  0  0  0
    5.5284   -5.6587    0.9107 H   0  0  0  0  0  0  0  0  0  0  0  0
    5.0157   -5.0076    3.2103 H   0  0  0  0  0  0  0  0  0  0  0  0
    6.0167   -3.0973    1.6364 H   0  0  0  0  0  0  0  0  0  0  0  0
    6.1951   -0.4088    2.6050 H   0  0  0  0  0  0  0  0  0  0  0  0
    4.8538   -0.4248    0.6891 H   0  0  0  0  0  0  0  0  0  0  0  0
  1  2  2  0
  1 24  1  0
  1 25  1  0
  2 16  1  0
  2  3  1  0
  4  3  1  1
  3 26  1  0
  3 27  1  0
  4 17  1  0
  4 23  1  0
  4  5  1  0
  5  6  1  0
  5 14  2  0
  6 10  1  0
  6  7  1  0
  6 28  1  1
  7 13  1  0
  7  8  1  0
  7 29  1  1
  8  9  1  0
  8 30  1  0
  8 31  1  0
  9 10  1  0
 10 11  1  0
 10 32  1  1
 11 12  1  0
 12 13  1  0
 12 33  1  0
 12 34  1  0
 14 15  1  0
 14 35  1  0
 15 16  1  0
 15 36  1  0
 15 37  1  0
 16 17  1  0
 16 38  1  1
 17 18  1  0
 17 39  1  6
 18 19  1  0
 19 23  1  0
 19 20  1  0
 19 40  1  6
 20 21  2  0
 20 22  1  0
 22 23  1  0
 23 41  1  6
M  END
>  <i_m_ct_stereo_status>  (331) 
1

>  <s_m_source_file>  (331) 
/var/tmp/pbs.5076255.sched01/tmpmzi298dc/117y2go66iu.sdf

>  <i_m_source_file_index>  (331) 
18

>  <i_lp_mmshare_version>  (331) 
48012

>  <i_f3d_flags>  (331) 
0

>  <s_epik_input>  (331) 
Tz1DMU9bQ0BIXTJbQ0BIXTFPW0NASF0oW0NAXTIzNClbQ0BASF0oQyg9W0NIMl0pW0NIMl0zKVtDSDJdW0NIXT1DNFtDQEhdKFtDQEhdNTYpW0NAQEhdKE9bQ0gyXTUpT1tDSDJdTzY=

>  <s_epik_cmdline>  (331) 
J2VwaWtfcHl0aG9uJywgJy1waHQnLCAnMi4wJywgJy1waCcsICc3LjAnLCAnLXRuJywgJzgnLCAnLW1hJywgJzIwMCcsICctaW1hZScsICc8aW5maWxlLm1hZT4nLCAnLW9tYWUnLCAnPG91dGZpbGUubWFlPic=

>  <r_lp_tautomer_probability>  (331) 
1

>  <r_epik_Ionization_Penalty>  (331) 
1.78919e-14

>  <r_epik_Ionization_Penalty_Charging>  (331) 
0

>  <r_epik_Ionization_Penalty_Neutral>  (331) 
1.78919e-14

>  <r_epik_State_Penalty>  (331) 
-0

>  <r_epik_Charging_Adjusted_Penalty>  (331) 
0

>  <i_epik_Tot_Q>  (331) 
0

>  <i_epik_Tot_abs_Q>  (331) 
0

>  <s_epik_Chemistry_Notes>  (331) 
This compound has an ester and may undergo hydrolysis at high or low pH. This compound contains an acetal/aminal-like group ( X-CH(R)-Y where X, Y are N, S, or O) that may be acid/base labile, releasing an aldehyde.

>  <s_lp_Force_Field>  (331) 
OPLS3e

>  <r_lp_Energy>  (331) 
36.329

>  <b_lp_Chiralities_Consistent>  (331) 
1

>  <s_lp_Variant>  (331) 
100:0-2

>  <s_i_glide_gridfile>  (331) 
pfpi4k_grid

>  <i_i_glide_lignum>  (331) 
18

>  <i_i_glide_rotatable_bonds>  (331) 
1

>  <r_i_docking_score>  (331) 
-3.30457

>  <r_i_glide_ligand_efficiency>  (331) 
-0.143677

>  <r_i_glide_ligand_efficiency_sa>  (331) 
-0.408598

>  <r_i_glide_ligand_efficiency_ln>  (331) 
-0.799075

>  <r_i_glide_gscore>  (331) 
-3.30457

>  <r_i_glide_lipo>  (331) 
-0.472634

>  <r_i_glide_hbond>  (331) 
0

>  <r_i_glide_metal>  (331) 
-0

>  <r_i_glide_rewards>  (331) 
-1.47584

>  <r_i_glide_evdw>  (331) 
-27.8245

>  <r_i_glide_ecoul>  (331) 
-0.683652

>  <r_i_glide_erotb>  (331) 
0.183988

>  <r_i_glide_esite>  (331) 
-0.0463161

>  <r_i_glide_emodel>  (331) 
-32

>  <r_i_glide_energy>  (331) 
-28.5081

>  <r_i_glide_einternal>  (331) 
3.1707

>  <r_i_glide_intrahb_reward>  (331) 
-0

>  <i_i_glide_confnum>  (331) 
4

>  <i_i_glide_posenum>  (331) 
34

>  <r_i_glide_eff_state_penalty>  (331) 
0

>  <ligand_id>  (331) 
100

>  <original_smiles>  (331) 
C=C1CC23C(C4C5COC4OCO5)=CCC1C2OC1C(=O)OC13

>  <smiles>  (331) 
[H]C([H])=C1C([H])([H])C23C(C4([H])C5([H])OC([H])([H])OC4([H])C([H])([H])O5)=C([H])C([H])([H])C1([H])C2([H])OC1([H])C(=O)OC13[H]

$$$$
100:1:2
     RDKit          3D

 41 46  0  0  1  0  0  0  0  0999 V2000
    6.4337   -6.8295    1.2413 C   0  0  0  0  0  0  0  0  0  0  0  0
    6.0473   -5.5734    1.0282 C   0  0  0  0  0  0  0  0  0  0  0  0
    4.6777   -5.1187    0.5601 C   0  0  0  0  0  0  0  0  0  0  0  0
    4.7109   -3.5687    0.7294 C   0  0  2  0  0  0  0  0  0  0  0  0
    5.2488   -2.9299   -0.5589 C   0  0  0  0  0  0  0  0  0  0  0  0
    4.2481   -2.2489   -1.5186 C   0  0  2  0  0  0  0  0  0  0  0  0
    3.4427   -3.2374   -2.3514 C   0  0  2  0  0  0  0  0  0  0  0  0
    4.5170   -3.7612   -3.3370 C   0  0  0  0  0  0  0  0  0  0  0  0
    5.4009   -2.6455   -3.5129 O   0  0  0  0  0  0  0  0  0  0  0  0
    4.9237   -1.5798   -2.7007 C   0  0  1  0  0  0  0  0  0  0  0  0
    3.9777   -0.7706   -3.3259 O   0  0  0  0  0  0  0  0  0  0  0  0
    2.9849   -1.5417   -3.9349 C   0  0  0  0  0  0  0  0  0  0  0  0
    2.4285   -2.5018   -3.0560 O   0  0  0  0  0  0  0  0  0  0  0  0
    6.5782   -3.0500   -0.8031 C   0  0  0  0  0  0  0  0  0  0  0  0
    7.5568   -3.7561    0.1306 C   0  0  0  0  0  0  0  0  0  0  0  0
    6.8564   -4.3516    1.3764 C   0  0  1  0  0  0  0  0  0  0  0  0
    5.7632   -3.3810    1.8190 C   0  0  2  0  0  0  0  0  0  0  0  0
    5.0317   -3.6701    3.0105 O   0  0  0  0  0  0  0  0  0  0  0  0
    3.8029   -2.9431    2.9097 C   0  0  2  0  0  0  0  0  0  0  0  0
    2.5525   -3.8474    2.9437 C   0  0  0  0  0  0  0  0  0  0  0  0
    1.9046   -4.4239    3.8060 O   0  0  0  0  0  0  0  0  0  0  0  0
    2.3807   -3.8115    1.5928 O   0  0  0  0  0  0  0  0  0  0  0  0
    3.5192   -2.9236    1.4194 C   0  0  2  0  0  0  0  0  0  0  0  0
    7.4253   -7.0597    1.6150 H   0  0  0  0  0  0  0  0  0  0  0  0
    5.7738   -7.6570    1.0145 H   0  0  0  0  0  0  0  0  0  0  0  0
    4.4931   -5.4351   -0.4678 H   0  0  0  0  0  0  0  0  0  0  0  0
    3.9420   -5.6074    1.1960 H   0  0  0  0  0  0  0  0  0  0  0  0
    3.6114   -1.5159   -0.9979 H   0  0  0  0  0  0  0  0  0  0  0  0
    2.9670   -4.0106   -1.7425 H   0  0  0  0  0  0  0  0  0  0  0  0
    5.0880   -4.5615   -2.8665 H   0  0  0  0  0  0  0  0  0  0  0  0
    4.0997   -4.1125   -4.2883 H   0  0  0  0  0  0  0  0  0  0  0  0
    5.7127   -0.9169   -2.3861 H   0  0  0  0  0  0  0  0  0  0  0  0
    2.2334   -0.8242   -4.2288 H   0  0  0  0  0  0  0  0  0  0  0  0
    3.3640   -2.0145   -4.8460 H   0  0  0  0  0  0  0  0  0  0  0  0
    7.0420   -2.6624   -1.7017 H   0  0  0  0  0  0  0  0  0  0  0  0
    8.0881   -4.5338   -0.4128 H   0  0  0  0  0  0  0  0  0  0  0  0
    8.3063   -3.0226    0.4274 H   0  0  0  0  0  0  0  0  0  0  0  0
    7.5976   -4.5978    2.1326 H   0  0  0  0  0  0  0  0  0  0  0  0
    6.1212   -2.3505    1.8752 H   0  0  0  0  0  0  0  0  0  0  0  0
    3.7326   -1.9828    3.4112 H   0  0  0  0  0  0  0  0  0  0  0  0
    3.2369   -1.9187    1.0971 H   0  0  0  0  0  0  0  0  0  0  0  0
  1  2  2  0
  1 24  1  0
  1 25  1  0
  2 16  1  0
  2  3  1  0
  4  3  1  6
  3 26  1  0
  3 27  1  0
  4 17  1  0
  4 23  1  0
  4  5  1  0
  5  6  1  0
  5 14  2  0
  6 10  1  0
  6  7  1  0
  6 28  1  1
  7 13  1  0
  7  8  1  0
  7 29  1  1
  8  9  1  0
  8 30  1  0
  8 31  1  0
  9 10  1  0
 10 11  1  0
 10 32  1  1
 11 12  1  0
 12 13  1  0
 12 33  1  0
 12 34  1  0
 14 15  1  0
 14 35  1  0
 15 16  1  0
 15 36  1  0
 15 37  1  0
 16 17  1  0
 16 38  1  1
 17 18  1  0
 17 39  1  1
 18 19  1  0
 19 23  1  0
 19 20  1  0
 19 40  1  1
 20 21  2  0
 20 22  1  0
 22 23  1  0
 23 41  1  6
M  END
>  <i_m_ct_stereo_status>  (332) 
1

>  <s_m_source_file>  (332) 
/var/tmp/pbs.5076255.sched01/tmpmzi298dc/117y2go66iu.sdf

>  <i_m_source_file_index>  (332) 
18

>  <i_lp_mmshare_version>  (332) 
48012

>  <i_f3d_flags>  (332) 
0

>  <s_epik_input>  (332) 
Tz1DMU9bQ0BIXTJbQ0BIXTFPW0NASF0oW0NAXTIzNClbQ0BASF0oQyg9W0NIMl0pW0NIMl0zKVtDSDJdW0NIXT1DNFtDQEhdKFtDQEhdNTYpW0NAQEhdKE9bQ0gyXTUpT1tDSDJdTzY=

>  <s_epik_cmdline>  (332) 
J2VwaWtfcHl0aG9uJywgJy1waHQnLCAnMi4wJywgJy1waCcsICc3LjAnLCAnLXRuJywgJzgnLCAnLW1hJywgJzIwMCcsICctaW1hZScsICc8aW5maWxlLm1hZT4nLCAnLW9tYWUnLCAnPG91dGZpbGUubWFlPic=

>  <r_lp_tautomer_probability>  (332) 
1

>  <r_epik_Ionization_Penalty>  (332) 
1.78919e-14

>  <r_epik_Ionization_Penalty_Charging>  (332) 
0

>  <r_epik_Ionization_Penalty_Neutral>  (332) 
1.78919e-14

>  <r_epik_State_Penalty>  (332) 
-0

>  <r_epik_Charging_Adjusted_Penalty>  (332) 
0

>  <i_epik_Tot_Q>  (332) 
0

>  <i_epik_Tot_abs_Q>  (332) 
0

>  <s_epik_Chemistry_Notes>  (332) 
This compound has an ester and may undergo hydrolysis at high or low pH. This compound contains an acetal/aminal-like group ( X-CH(R)-Y where X, Y are N, S, or O) that may be acid/base labile, releasing an aldehyde.

>  <s_lp_Force_Field>  (332) 
OPLS3e

>  <r_lp_Energy>  (332) 
36.329

>  <b_lp_Chiralities_Consistent>  (332) 
1

>  <s_lp_Variant>  (332) 
100:0-2

>  <s_i_glide_gridfile>  (332) 
pfpi4k_grid

>  <i_i_glide_lignum>  (332) 
18

>  <i_i_glide_rotatable_bonds>  (332) 
1

>  <r_i_docking_score>  (332) 
-3.01229

>  <r_i_glide_ligand_efficiency>  (332) 
-0.130969

>  <r_i_glide_ligand_efficiency_sa>  (332) 
-0.372459

>  <r_i_glide_ligand_efficiency_ln>  (332) 
-0.7284

>  <r_i_glide_gscore>  (332) 
-3.01229

>  <r_i_glide_lipo>  (332) 
-0.678566

>  <r_i_glide_hbond>  (332) 
0

>  <r_i_glide_metal>  (332) 
-0

>  <r_i_glide_rewards>  (332) 
-1.36625

>  <r_i_glide_evdw>  (332) 
-22.9506

>  <r_i_glide_ecoul>  (332) 
0.10835

>  <r_i_glide_erotb>  (332) 
0.183988

>  <r_i_glide_esite>  (332) 
-0.0201863

>  <r_i_glide_emodel>  (332) 
-27.1898

>  <r_i_glide_energy>  (332) 
-22.8423

>  <r_i_glide_einternal>  (332) 
0.61259

>  <r_i_glide_intrahb_reward>  (332) 
-0

>  <i_i_glide_confnum>  (332) 
2

>  <i_i_glide_posenum>  (332) 
37

>  <r_i_glide_eff_state_penalty>  (332) 
0

>  <ligand_id>  (332) 
100

>  <original_smiles>  (332) 
C=C1CC23C(C4C5COC4OCO5)=CCC1C2OC1C(=O)OC13

>  <smiles>  (332) 
[H]C([H])=C1C([H])([H])C23C(C4([H])C5([H])OC([H])([H])OC4([H])C([H])([H])O5)=C([H])C([H])([H])C1([H])C2([H])OC1([H])C(=O)OC13[H]

$$$$
101:0:0
     RDKit          3D

 65 69  0  0  1  0  0  0  0  0999 V2000
    4.5118   -5.3801    0.8089 C   0  0  0  0  0  0  0  0  0  0  0  0
    3.3546   -4.3694    0.9662 C   0  0  2  0  0  0  0  0  0  0  0  0
    2.4268   -4.3771   -0.2668 C   0  0  0  0  0  0  0  0  0  0  0  0
    3.0075   -3.8486   -1.5557 C   0  0  0  0  0  0  0  0  0  0  0  0
    3.0377   -2.3649   -1.6068 C   0  0  1  0  0  0  0  0  0  0  0  0
    3.3186   -1.4537   -0.4456 C   0  0  2  0  0  0  0  0  0  0  0  0
    4.3526   -1.6107   -1.5614 C   0  0  0  0  0  0  0  0  0  0  0  0
    5.6857   -2.2849   -1.3826 C   0  0  0  0  0  0  0  0  0  0  0  0
    4.5161   -0.5349   -2.6312 C   0  0  0  0  0  0  0  0  0  0  0  0
    3.2019   -1.6475    1.1268 C   0  0  1  0  0  0  0  0  0  0  0  0
    1.7252   -1.3520    1.4348 C   0  0  0  0  0  0  0  0  0  0  0  0
    3.6450   -3.0276    1.7892 C   0  0  1  0  0  0  0  0  0  0  0  0
    2.9216   -3.2454    3.1943 C   0  0  1  0  0  0  0  0  0  0  0  0
    3.2758   -4.4566    3.8295 O   0  0  0  0  0  0  0  0  0  0  0  0
    3.0482   -4.2933    5.1845 C   0  0  0  0  0  0  0  0  0  0  0  0
    1.6582   -4.8283    5.5505 C   0  0  0  0  0  0  0  0  0  0  0  0
    4.1833   -4.9945    5.9198 C   0  0  0  0  0  0  0  0  0  0  0  0
    3.0757   -2.9521    5.5147 O   0  0  0  0  0  0  0  0  0  0  0  0
    3.1371   -2.2143    4.3194 C   0  0  1  0  0  0  0  0  0  0  0  0
    4.4520   -1.4131    4.2691 C   0  0  1  0  0  0  0  0  0  0  0  0
    5.4436   -1.9784    5.1119 O   0  0  0  0  0  0  0  0  0  0  0  0
    4.9994   -1.3043    2.8286 C   0  0  1  0  0  0  0  0  0  0  0  0
    6.1998   -0.6224    2.9651 O   0  0  0  0  0  0  0  0  0  0  0  0
    5.1243   -2.6831    2.1087 C   0  0  1  0  0  0  0  0  0  0  0  0
    5.7671   -3.6599    2.8907 O   0  0  0  0  0  0  0  0  0  0  0  0
    4.0747   -0.5391    1.8460 C   0  0  1  0  0  0  0  0  0  0  0  0
    4.9966   -0.0015    0.8881 O   0  0  0  0  0  0  0  0  0  0  0  0
    3.4220    0.7758    2.4071 C   0  0  0  0  0  0  0  0  0  0  0  0
    2.3845    0.7063    3.3774 O   0  0  0  0  0  0  0  0  0  0  0  0
    4.1976   -6.2408    0.2146 H   0  0  0  0  0  0  0  0  0  0  0  0
    4.8041   -5.7813    1.7806 H   0  0  0  0  0  0  0  0  0  0  0  0
    5.3916   -4.9603    0.3270 H   0  0  0  0  0  0  0  0  0  0  0  0
    2.6894   -4.9420    1.6069 H   0  0  0  0  0  0  0  0  0  0  0  0
    2.1232   -5.4141   -0.4455 H   0  0  0  0  0  0  0  0  0  0  0  0
    1.5051   -3.8442   -0.1133 H   0  0  0  0  0  0  0  0  0  0  0  0
    3.9906   -4.2572   -1.7832 H   0  0  0  0  0  0  0  0  0  0  0  0
    2.3211   -4.1209   -2.3608 H   0  0  0  0  0  0  0  0  0  0  0  0
    2.3177   -1.9663   -2.3166 H   0  0  0  0  0  0  0  0  0  0  0  0
    2.7886   -0.5416   -0.6130 H   0  0  0  0  0  0  0  0  0  0  0  0
    6.3547   -1.6118   -0.8445 H   0  0  0  0  0  0  0  0  0  0  0  0
    6.1246   -2.5522   -2.3512 H   0  0  0  0  0  0  0  0  0  0  0  0
    5.5568   -3.1885   -0.8066 H   0  0  0  0  0  0  0  0  0  0  0  0
    5.2844    0.1610   -2.3181 H   0  0  0  0  0  0  0  0  0  0  0  0
    3.5743   -0.0014   -2.7999 H   0  0  0  0  0  0  0  0  0  0  0  0
    4.8536   -0.9524   -3.5864 H   0  0  0  0  0  0  0  0  0  0  0  0
    1.4125   -1.3488    2.4739 H   0  0  0  0  0  0  0  0  0  0  0  0
    1.1156   -2.0514    0.8779 H   0  0  0  0  0  0  0  0  0  0  0  0
    1.4821   -0.3495    1.1018 H   0  0  0  0  0  0  0  0  0  0  0  0
    1.8462   -3.3487    3.0449 H   0  0  0  0  0  0  0  0  0  0  0  0
    0.8705   -4.2693    5.0417 H   0  0  0  0  0  0  0  0  0  0  0  0
    1.5159   -4.7141    6.6247 H   0  0  0  0  0  0  0  0  0  0  0  0
    1.5889   -5.8826    5.2885 H   0  0  0  0  0  0  0  0  0  0  0  0
    5.1429   -4.5926    5.5959 H   0  0  0  0  0  0  0  0  0  0  0  0
    4.1506   -6.0552    5.6839 H   0  0  0  0  0  0  0  0  0  0  0  0
    4.0733   -4.8440    6.9922 H   0  0  0  0  0  0  0  0  0  0  0  0
    2.3004   -1.5298    4.3613 H   0  0  0  0  0  0  0  0  0  0  0  0
    4.2947   -0.4073    4.6520 H   0  0  0  0  0  0  0  0  0  0  0  0
    5.6815   -2.8162    4.7240 H   0  0  0  0  0  0  0  0  0  0  0  0
    6.4459   -0.4167    2.0553 H   0  0  0  0  0  0  0  0  0  0  0  0
    5.7163   -2.5774    1.2013 H   0  0  0  0  0  0  0  0  0  0  0  0
    5.8351   -4.4447    2.3658 H   0  0  0  0  0  0  0  0  0  0  0  0
    4.5500    0.6102    0.3223 H   0  0  0  0  0  0  0  0  0  0  0  0
    4.2187    1.3563    2.8811 H   0  0  0  0  0  0  0  0  0  0  0  0
    3.0319    1.3887    1.5957 H   0  0  0  0  0  0  0  0  0  0  0  0
    1.7378    1.3771    3.1650 H   0  0  0  0  0  0  0  0  0  0  0  0
  1  2  1  0
  1 30  1  0
  1 31  1  0
  1 32  1  0
  2 12  1  0
  2  3  1  0
  2 33  1  1
  3  4  1  0
  3 34  1  0
  3 35  1  0
  4  5  1  0
  4 36  1  0
  4 37  1  0
  5  7  1  0
  5  6  1  0
  5 38  1  6
  6  7  1  0
  6 10  1  0
  6 39  1  6
  7  8  1  0
  7  9  1  0
  8 40  1  0
  8 41  1  0
  8 42  1  0
  9 43  1  0
  9 44  1  0
  9 45  1  0
 10 26  1  0
 10 11  1  1
 12 10  1  6
 11 46  1  0
 11 47  1  0
 11 48  1  0
 12 24  1  0
 12 13  1  0
 13 19  1  0
 13 14  1  0
 13 49  1  6
 14 15  1  0
 15 16  1  0
 15 17  1  0
 15 18  1  0
 16 50  1  0
 16 51  1  0
 16 52  1  0
 17 53  1  0
 17 54  1  0
 17 55  1  0
 18 19  1  0
 19 20  1  0
 19 56  1  1
 20 21  1  0
 20 22  1  0
 20 57  1  1
 21 58  1  0
 22 23  1  1
 22 24  1  0
 22 26  1  0
 23 59  1  0
 24 25  1  0
 24 60  1  6
 25 61  1  0
 26 27  1  6
 26 28  1  0
 27 62  1  0
 28 29  1  0
 28 63  1  0
 28 64  1  0
 29 65  1  0
M  END
>  <i_m_ct_stereo_status>  (333) 
1

>  <s_m_source_file>  (333) 
/var/tmp/pbs.5076255.sched01/tmpmzi298dc/117y2go66iu.sdf

>  <i_m_source_file_index>  (333) 
19

>  <i_lp_mmshare_version>  (333) 
48012

>  <i_f3d_flags>  (333) 
0

>  <s_epik_input>  (333) 
W0NIM11bQ0BASF0xW0NIMl1bQ0gyXVtDQEhdKEMyKFtDSDNdKVtDSDNdKVtDQEhdMltDQF0oW0NAXTEzNCkoW0NIM10pW0NAQF0oW09IXSkoW0NIMl1bT0hdKVtDQF0oW09IXSkoW0NASF00W09IXSlbQ0BIXShbT0hdKVtDQEhdNVtDQEBIXTNPQyhPNSkoW0NIM10pW0NIM10=

>  <s_epik_cmdline>  (333) 
J2VwaWtfcHl0aG9uJywgJy1waHQnLCAnMi4wJywgJy1waCcsICc3LjAnLCAnLXRuJywgJzgnLCAnLW1hJywgJzIwMCcsICctaW1hZScsICc8aW5maWxlLm1hZT4nLCAnLW9tYWUnLCAnPG91dGZpbGUubWFlPic=

>  <r_lp_tautomer_probability>  (333) 
1

>  <r_epik_Ionization_Penalty>  (333) 
5.04331e-07

>  <r_epik_Ionization_Penalty_Charging>  (333) 
0

>  <r_epik_Ionization_Penalty_Neutral>  (333) 
5.04331e-07

>  <r_epik_State_Penalty>  (333) 
-0

>  <r_epik_Charging_Adjusted_Penalty>  (333) 
0

>  <i_epik_Tot_Q>  (333) 
0

>  <i_epik_Tot_abs_Q>  (333) 
0

>  <s_lp_Force_Field>  (333) 
OPLS3e

>  <r_lp_Energy>  (333) 
90.1847

>  <b_lp_Chiralities_Consistent>  (333) 
1

>  <s_lp_Variant>  (333) 
101:0-1

>  <s_i_glide_gridfile>  (333) 
pfpi4k_grid

>  <i_i_glide_lignum>  (333) 
19

>  <i_i_glide_rotatable_bonds>  (333) 
6

>  <r_i_docking_score>  (333) 
-2.03707

>  <r_i_glide_ligand_efficiency>  (333) 
-0.0702439

>  <r_i_glide_ligand_efficiency_sa>  (333) 
-0.215811

>  <r_i_glide_ligand_efficiency_ln>  (333) 
-0.466438

>  <r_i_glide_gscore>  (333) 
-2.03707

>  <r_i_glide_lipo>  (333) 
-0.371215

>  <r_i_glide_hbond>  (333) 
0

>  <r_i_glide_metal>  (333) 
-0

>  <r_i_glide_rewards>  (333) 
-1.09647

>  <r_i_glide_evdw>  (333) 
-0.632514

>  <r_i_glide_ecoul>  (333) 
-4.3576

>  <r_i_glide_erotb>  (333) 
0.115882

>  <r_i_glide_esite>  (333) 
0

>  <r_i_glide_emodel>  (333) 
-8.93581

>  <r_i_glide_energy>  (333) 
-4.99011

>  <r_i_glide_einternal>  (333) 
1.93674

>  <r_i_glide_intrahb_reward>  (333) 
-0.5

>  <i_i_glide_confnum>  (333) 
2

>  <i_i_glide_posenum>  (333) 
15

>  <r_i_glide_eff_state_penalty>  (333) 
0

>  <ligand_id>  (333) 
101

>  <original_smiles>  (333) 
CC1CCC2C(C2(C)C)C2(C)C13C1OC(C)(C)OC1C(O)C(O)(C3O)C2(O)CO

>  <smiles>  (333) 
[H]OC([H])([H])C1(O[H])C2(O[H])C([H])(O[H])C3([H])OC(C([H])([H])[H])(C([H])([H])[H])OC3([H])C3(C2([H])O[H])C([H])(C([H])([H])[H])C([H])([H])C([H])([H])C2([H])C([H])(C2(C([H])([H])[H])C([H])([H])[H])C13C([H])([H])[H]

$$$$
101:0:1
     RDKit          3D

 65 69  0  0  1  0  0  0  0  0999 V2000
    4.5012   -5.4469    0.6429 C   0  0  0  0  0  0  0  0  0  0  0  0
    3.3293   -4.4691    0.8899 C   0  0  2  0  0  0  0  0  0  0  0  0
    2.3732   -4.4445   -0.3133 C   0  0  0  0  0  0  0  0  0  0  0  0
    2.9106   -3.8514   -1.5868 C   0  0  0  0  0  0  0  0  0  0  0  0
    2.9052   -2.3702   -1.5611 C   0  0  1  0  0  0  0  0  0  0  0  0
    3.1850   -1.5056   -0.3758 C   0  0  2  0  0  0  0  0  0  0  0  0
    4.2020   -1.5931   -1.5343 C   0  0  0  0  0  0  0  0  0  0  0  0
    5.5518   -2.2363   -1.4272 C   0  0  0  0  0  0  0  0  0  0  0  0
    4.2946   -0.5227   -2.6061 C   0  0  0  0  0  0  0  0  0  0  0  0
    3.1377   -1.7601    1.1759 C   0  0  1  0  0  0  0  0  0  0  0  0
    1.6718   -1.5008    1.6319 C   0  0  0  0  0  0  0  0  0  0  0  0
    3.6194   -3.1589    1.7606 C   0  0  1  0  0  0  0  0  0  0  0  0
    2.9420   -3.4507    3.1768 C   0  0  1  0  0  0  0  0  0  0  0  0
    3.4023   -4.6568    3.7409 O   0  0  0  0  0  0  0  0  0  0  0  0
    3.1699   -4.5651    5.1106 C   0  0  0  0  0  0  0  0  0  0  0  0
    1.8031   -5.1668    5.4796 C   0  0  0  0  0  0  0  0  0  0  0  0
    4.3303   -5.2940    5.7829 C   0  0  0  0  0  0  0  0  0  0  0  0
    3.1458   -3.2299    5.5092 O   0  0  0  0  0  0  0  0  0  0  0  0
    3.1726   -2.4453    4.3393 C   0  0  1  0  0  0  0  0  0  0  0  0
    4.4763   -1.6195    4.2580 C   0  0  1  0  0  0  0  0  0  0  0  0
    5.4331   -2.1415    5.1516 O   0  0  0  0  0  0  0  0  0  0  0  0
    4.9715   -1.4824    2.7814 C   0  0  1  0  0  0  0  0  0  0  0  0
    6.2219   -0.8215    2.8326 O   0  0  0  0  0  0  0  0  0  0  0  0
    5.0870   -2.8117    2.0352 C   0  0  1  0  0  0  0  0  0  0  0  0
    5.7808   -3.8045    2.7897 O   0  0  0  0  0  0  0  0  0  0  0  0
    4.0383   -0.6613    1.8670 C   0  0  1  0  0  0  0  0  0  0  0  0
    4.8412   -0.0091    0.8850 O   0  0  0  0  0  0  0  0  0  0  0  0
    3.3984    0.5461    2.6052 C   0  0  0  0  0  0  0  0  0  0  0  0
    2.6580    1.3695    1.7019 O   0  0  0  0  0  0  0  0  0  0  0  0
    4.1830   -6.2864    0.0203 H   0  0  0  0  0  0  0  0  0  0  0  0
    4.8385   -5.8813    1.5834 H   0  0  0  0  0  0  0  0  0  0  0  0
    5.3566   -4.9917    0.1574 H   0  0  0  0  0  0  0  0  0  0  0  0
    2.6990   -5.0744    1.5288 H   0  0  0  0  0  0  0  0  0  0  0  0
    2.0764   -5.4734   -0.5276 H   0  0  0  0  0  0  0  0  0  0  0  0
    1.4383   -3.9378   -0.1233 H   0  0  0  0  0  0  0  0  0  0  0  0
    3.8943   -4.2249   -1.8682 H   0  0  0  0  0  0  0  0  0  0  0  0
    2.2142   -4.0891   -2.3955 H   0  0  0  0  0  0  0  0  0  0  0  0
    2.1920   -1.9556   -2.2594 H   0  0  0  0  0  0  0  0  0  0  0  0
    2.6530   -0.5890   -0.4563 H   0  0  0  0  0  0  0  0  0  0  0  0
    6.2209   -1.5650   -0.8847 H   0  0  0  0  0  0  0  0  0  0  0  0
    5.9702   -2.4422   -2.4223 H   0  0  0  0  0  0  0  0  0  0  0  0
    5.4754   -3.1642   -0.8925 H   0  0  0  0  0  0  0  0  0  0  0  0
    5.0223    0.1982   -2.2831 H   0  0  0  0  0  0  0  0  0  0  0  0
    3.3405   -0.0433   -2.7746 H   0  0  0  0  0  0  0  0  0  0  0  0
    4.6786   -0.8996   -3.5584 H   0  0  0  0  0  0  0  0  0  0  0  0
    1.4644   -1.4712    2.6951 H   0  0  0  0  0  0  0  0  0  0  0  0
    1.0331   -2.2314    1.2112 H   0  0  0  0  0  0  0  0  0  0  0  0
    1.2794   -0.5445    1.3196 H   0  0  0  0  0  0  0  0  0  0  0  0
    1.8623   -3.5797    3.0757 H   0  0  0  0  0  0  0  0  0  0  0  0
    0.9832   -4.6070    5.0300 H   0  0  0  0  0  0  0  0  0  0  0  0
    1.6928   -5.1135    6.5648 H   0  0  0  0  0  0  0  0  0  0  0  0
    1.7526   -6.2136    5.1765 H   0  0  0  0  0  0  0  0  0  0  0  0
    5.2917   -4.8817    5.4617 H   0  0  0  0  0  0  0  0  0  0  0  0
    4.3030   -6.3481    5.4960 H   0  0  0  0  0  0  0  0  0  0  0  0
    4.2542   -5.2149    6.8699 H   0  0  0  0  0  0  0  0  0  0  0  0
    2.3536   -1.7343    4.4387 H   0  0  0  0  0  0  0  0  0  0  0  0
    4.2812   -0.6376    4.6738 H   0  0  0  0  0  0  0  0  0  0  0  0
    5.7557   -2.9571    4.7917 H   0  0  0  0  0  0  0  0  0  0  0  0
    6.0816   -0.0172    3.3080 H   0  0  0  0  0  0  0  0  0  0  0  0
    5.6657   -2.6591    1.1264 H   0  0  0  0  0  0  0  0  0  0  0  0
    5.1213   -4.1780    3.3959 H   0  0  0  0  0  0  0  0  0  0  0  0
    4.3068    0.6008    0.4122 H   0  0  0  0  0  0  0  0  0  0  0  0
    2.6957    0.2939    3.3898 H   0  0  0  0  0  0  0  0  0  0  0  0
    4.1623    1.1501    3.0853 H   0  0  0  0  0  0  0  0  0  0  0  0
    2.2565    2.0905    2.1676 H   0  0  0  0  0  0  0  0  0  0  0  0
  1  2  1  0
  1 30  1  0
  1 31  1  0
  1 32  1  0
  2 12  1  0
  2  3  1  0
  2 33  1  1
  3  4  1  0
  3 34  1  0
  3 35  1  0
  4  5  1  0
  4 36  1  0
  4 37  1  0
  5  7  1  0
  5  6  1  0
  5 38  1  6
  6  7  1  0
  6 10  1  0
  6 39  1  1
  7  8  1  0
  7  9  1  0
  8 40  1  0
  8 41  1  0
  8 42  1  0
  9 43  1  0
  9 44  1  0
  9 45  1  0
 10 26  1  0
 10 11  1  1
 12 10  1  6
 11 46  1  0
 11 47  1  0
 11 48  1  0
 12 24  1  0
 12 13  1  0
 13 19  1  0
 13 14  1  0
 13 49  1  6
 14 15  1  0
 15 16  1  0
 15 17  1  0
 15 18  1  0
 16 50  1  0
 16 51  1  0
 16 52  1  0
 17 53  1  0
 17 54  1  0
 17 55  1  0
 18 19  1  0
 19 20  1  0
 19 56  1  1
 20 21  1  0
 20 22  1  0
 20 57  1  1
 21 58  1  0
 22 23  1  1
 22 24  1  0
 22 26  1  0
 23 59  1  0
 24 25  1  0
 24 60  1  6
 25 61  1  0
 26 27  1  6
 26 28  1  0
 27 62  1  0
 28 29  1  0
 28 63  1  0
 28 64  1  0
 29 65  1  0
M  END
>  <i_m_ct_stereo_status>  (334) 
1

>  <s_m_source_file>  (334) 
/var/tmp/pbs.5076255.sched01/tmpmzi298dc/117y2go66iu.sdf

>  <i_m_source_file_index>  (334) 
19

>  <i_lp_mmshare_version>  (334) 
48012

>  <i_f3d_flags>  (334) 
0

>  <s_epik_input>  (334) 
W0NIM11bQ0BASF0xW0NIMl1bQ0gyXVtDQEhdKEMyKFtDSDNdKVtDSDNdKVtDQEhdMltDQF0oW0NAXTEzNCkoW0NIM10pW0NAQF0oW09IXSkoW0NIMl1bT0hdKVtDQF0oW09IXSkoW0NASF00W09IXSlbQ0BIXShbT0hdKVtDQEhdNVtDQEBIXTNPQyhPNSkoW0NIM10pW0NIM10=

>  <s_epik_cmdline>  (334) 
J2VwaWtfcHl0aG9uJywgJy1waHQnLCAnMi4wJywgJy1waCcsICc3LjAnLCAnLXRuJywgJzgnLCAnLW1hJywgJzIwMCcsICctaW1hZScsICc8aW5maWxlLm1hZT4nLCAnLW9tYWUnLCAnPG91dGZpbGUubWFlPic=

>  <r_lp_tautomer_probability>  (334) 
1

>  <r_epik_Ionization_Penalty>  (334) 
5.04331e-07

>  <r_epik_Ionization_Penalty_Charging>  (334) 
0

>  <r_epik_Ionization_Penalty_Neutral>  (334) 
5.04331e-07

>  <r_epik_State_Penalty>  (334) 
-0

>  <r_epik_Charging_Adjusted_Penalty>  (334) 
0

>  <i_epik_Tot_Q>  (334) 
0

>  <i_epik_Tot_abs_Q>  (334) 
0

>  <s_lp_Force_Field>  (334) 
OPLS3e

>  <r_lp_Energy>  (334) 
90.1847

>  <b_lp_Chiralities_Consistent>  (334) 
1

>  <s_lp_Variant>  (334) 
101:0-1

>  <s_i_glide_gridfile>  (334) 
pfpi4k_grid

>  <i_i_glide_lignum>  (334) 
19

>  <i_i_glide_rotatable_bonds>  (334) 
6

>  <r_i_docking_score>  (334) 
-1.979

>  <r_i_glide_ligand_efficiency>  (334) 
-0.0682414

>  <r_i_glide_ligand_efficiency_sa>  (334) 
-0.209659

>  <r_i_glide_ligand_efficiency_ln>  (334) 
-0.453141

>  <r_i_glide_gscore>  (334) 
-1.979

>  <r_i_glide_lipo>  (334) 
-0.420908

>  <r_i_glide_hbond>  (334) 
0

>  <r_i_glide_metal>  (334) 
-0

>  <r_i_glide_rewards>  (334) 
-1.09647

>  <r_i_glide_evdw>  (334) 
-4.50196

>  <r_i_glide_ecoul>  (334) 
-2.34935

>  <r_i_glide_erotb>  (334) 
0.115882

>  <r_i_glide_esite>  (334) 
0

>  <r_i_glide_emodel>  (334) 
-10.4504

>  <r_i_glide_energy>  (334) 
-6.85131

>  <r_i_glide_einternal>  (334) 
3.19111

>  <r_i_glide_intrahb_reward>  (334) 
-0.5

>  <i_i_glide_confnum>  (334) 
5

>  <i_i_glide_posenum>  (334) 
5

>  <r_i_glide_eff_state_penalty>  (334) 
0

>  <ligand_id>  (334) 
101

>  <original_smiles>  (334) 
CC1CCC2C(C2(C)C)C2(C)C13C1OC(C)(C)OC1C(O)C(O)(C3O)C2(O)CO

>  <smiles>  (334) 
[H]OC([H])([H])C1(O[H])C2(O[H])C([H])(O[H])C3([H])OC(C([H])([H])[H])(C([H])([H])[H])OC3([H])C3(C2([H])O[H])C([H])(C([H])([H])[H])C([H])([H])C([H])([H])C2([H])C([H])(C2(C([H])([H])[H])C([H])([H])[H])C13C([H])([H])[H]

$$$$
103:0:0
     RDKit          3D

 59 64  0  0  1  0  0  0  0  0999 V2000
   -2.0763   -7.8489    2.9785 N   0  0  0  0  0  0  0  0  0  0  0  0
   -1.0401   -8.2710    3.2746 C   0  0  0  0  0  0  0  0  0  0  0  0
    0.2861   -8.7922    3.6465 C   0  0  0  0  0  0  0  0  0  0  0  0
    1.4064   -8.2011    2.7931 C   0  0  2  0  0  0  0  0  0  0  0  0
    2.7650   -8.6657    3.3614 C   0  0  0  0  0  0  0  0  0  0  0  0
    3.8652   -7.9885    2.5799 C   0  0  0  0  0  0  0  0  0  0  0  0
    3.6937   -6.4350    2.5370 C   0  0  1  0  0  0  0  0  0  0  0  0
    2.2587   -6.1283    2.0000 C   0  0  0  0  0  0  0  0  0  0  0  0
    1.2879   -6.7741    2.8202 O   0  0  0  0  0  0  0  0  0  0  0  0
    3.8609   -5.9603    4.0043 C   0  0  0  0  0  0  0  0  0  0  0  0
    3.6480   -4.4866    4.1995 C   0  0  0  0  0  0  0  0  0  0  0  0
    3.0334   -3.9797    5.4875 C   0  0  0  0  0  0  0  0  0  0  0  0
    2.2614   -3.8766    4.1972 C   0  0  0  0  0  0  0  0  0  0  0  0
    4.6867   -3.6613    3.6709 O   0  0  0  0  0  0  0  0  0  0  0  0
    4.5118   -3.3293    2.3490 C   0  0  0  0  0  0  0  0  0  0  0  0
    4.3632   -1.9684    2.0614 C   0  0  0  0  0  0  0  0  0  0  0  0
    4.1323   -1.5504    0.7353 C   0  0  0  0  0  0  0  0  0  0  0  0
    4.0774   -2.4831   -0.2944 C   0  0  0  0  0  0  0  0  0  0  0  0
    3.8342   -2.0293   -1.6787 C   0  0  0  0  0  0  0  0  0  0  0  0
    3.1769   -2.8484   -2.6326 C   0  0  0  0  0  0  0  0  0  0  0  0
    2.9615   -2.3674   -3.8630 C   0  0  0  0  0  0  0  0  0  0  0  0
    3.4080   -1.0705   -4.2491 C   0  0  0  0  0  0  0  0  0  0  0  0
    4.0348   -0.3191   -3.2527 C   0  0  0  0  0  0  0  0  0  0  0  0
    4.2639   -0.7967   -2.0048 N   0  0  0  0  0  0  0  0  0  0  0  0
    4.2536   -3.8484   -0.0212 C   0  0  0  0  0  0  0  0  0  0  0  0
    4.4847   -4.2951    1.3045 C   0  0  0  0  0  0  0  0  0  0  0  0
    4.7633   -5.7791    1.6049 C   0  0  2  0  0  0  0  0  0  0  0  0
    4.9050   -6.7747    0.4174 C   0  0  0  0  0  0  0  0  0  0  0  0
    5.9572   -7.6405    1.0071 O   0  0  0  0  0  0  0  0  0  0  0  0
    6.6853   -6.9681    1.8803 C   0  0  0  0  0  0  0  0  0  0  0  0
    7.8222   -7.4963    2.3317 N   0  0  0  0  0  0  0  0  0  0  0  0
    6.0739   -5.8671    2.2347 N   0  0  0  0  0  0  0  0  0  0  0  0
    0.4694   -8.5427    4.6935 H   0  0  0  0  0  0  0  0  0  0  0  0
    0.2899   -9.8812    3.5539 H   0  0  0  0  0  0  0  0  0  0  0  0
    1.2773   -8.5339    1.7543 H   0  0  0  0  0  0  0  0  0  0  0  0
    2.8255   -8.4603    4.4396 H   0  0  0  0  0  0  0  0  0  0  0  0
    2.8504   -9.7499    3.2495 H   0  0  0  0  0  0  0  0  0  0  0  0
    4.8438   -8.2688    2.9794 H   0  0  0  0  0  0  0  0  0  0  0  0
    3.7998   -8.4253    1.5808 H   0  0  0  0  0  0  0  0  0  0  0  0
    2.0601   -5.0552    2.0027 H   0  0  0  0  0  0  0  0  0  0  0  0
    2.1555   -6.4311    0.9521 H   0  0  0  0  0  0  0  0  0  0  0  0
    3.1420   -6.4617    4.6552 H   0  0  0  0  0  0  0  0  0  0  0  0
    4.8410   -6.2387    4.4031 H   0  0  0  0  0  0  0  0  0  0  0  0
    2.6767   -4.7292    6.1987 H   0  0  0  0  0  0  0  0  0  0  0  0
    3.3837   -3.0460    5.9205 H   0  0  0  0  0  0  0  0  0  0  0  0
    2.1515   -2.9046    3.7236 H   0  0  0  0  0  0  0  0  0  0  0  0
    1.4241   -4.5643    4.0640 H   0  0  0  0  0  0  0  0  0  0  0  0
    4.3951   -1.2546    2.8638 H   0  0  0  0  0  0  0  0  0  0  0  0
    3.9809   -0.4943    0.5572 H   0  0  0  0  0  0  0  0  0  0  0  0
    2.8284   -3.8593   -2.3748 H   0  0  0  0  0  0  0  0  0  0  0  0
    2.4876   -2.9764   -4.6415 H   0  0  0  0  0  0  0  0  0  0  0  0
    3.2570   -0.6645   -5.2277 H   0  0  0  0  0  0  0  0  0  0  0  0
    4.3808    0.6903   -3.4488 H   0  0  0  0  0  0  0  0  0  0  0  0
    4.2225   -4.5491   -0.8370 H   0  0  0  0  0  0  0  0  0  0  0  0
    3.8992   -7.2249    0.1957 H   0  0  0  0  0  0  0  0  0  0  0  0
    5.2586   -6.3067   -0.5188 H   0  0  0  0  0  0  0  0  0  0  0  0
    8.3761   -6.9308    2.9240 H   0  0  0  0  0  0  0  0  0  0  0  0
    6.4321   -5.1784    2.8475 H   0  0  0  0  0  0  0  0  0  0  0  0
    8.1439   -8.4101    2.0396 H   0  0  0  0  0  0  0  0  0  0  0  0
  1  2  3  0
  2  3  1  0
  3  4  1  0
  3 33  1  0
  3 34  1  0
  4  9  1  0
  4  5  1  0
  4 35  1  6
  5  6  1  0
  5 36  1  0
  5 37  1  0
  7  6  1  1
  6 38  1  0
  6 39  1  0
  7 27  1  0
  7  8  1  0
  7 10  1  0
  8  9  1  0
  8 40  1  0
  8 41  1  0
 10 11  1  0
 10 42  1  0
 10 43  1  0
 11 13  1  0
 11 12  1  0
 11 14  1  0
 12 13  1  0
 12 44  1  0
 12 45  1  0
 13 46  1  0
 13 47  1  0
 14 15  1  0
 15 26  2  0
 15 16  1  0
 16 17  2  0
 16 48  1  0
 17 18  1  0
 17 49  1  0
 18 19  1  0
 18 25  2  0
 19 24  1  0
 19 20  2  0
 20 21  1  0
 20 50  1  0
 21 22  2  0
 21 51  1  0
 22 23  1  0
 22 52  1  0
 23 24  2  0
 23 53  1  0
 25 26  1  0
 25 54  1  0
 26 27  1  0
 27 32  1  0
 27 28  1  6
 28 29  1  0
 28 55  1  0
 28 56  1  0
 29 30  1  0
 30 31  1  0
 30 32  2  0
 31 57  1  0
 31 59  1  0
 32 58  1  0
M  CHG  1  32   1
M  END
>  <i_m_ct_stereo_status>  (335) 
1

>  <s_m_source_file>  (335) 
/var/tmp/pbs.5076255.sched01/tmpmzi298dc/117y2go66iu.sdf

>  <i_m_source_file_index>  (335) 
21

>  <i_lp_mmshare_version>  (335) 
48012

>  <i_f3d_flags>  (335) 
0

>  <s_epik_input>  (335) 
TiNDW0NIMl1bQ0BASF0oT1tDSDJdMSlbQ0gyXVtDSDJdW0NAQF0xMltDQEBdMyhbQ0gyXU8vQyg9Ti9bSF0pW05IXTMpYzRjKE9DNShbQ0gyXTIpW0NIMl1bQ0gyXTUpW2NIXVtjSF1jKFtjSF00KS1jNltjSF1bY0hdW2NIXVtjSF1uNg==

>  <s_epik_cmdline>  (335) 
J2VwaWtfcHl0aG9uJywgJy1waHQnLCAnMi4wJywgJy1waCcsICc3LjAnLCAnLXRuJywgJzgnLCAnLW1hJywgJzIwMCcsICctaW1hZScsICc8aW5maWxlLm1hZT4nLCAnLW9tYWUnLCAnPG91dGZpbGUubWFlPic=

>  <r_lp_tautomer_probability>  (335) 
1

>  <r_epik_Ionization_Penalty>  (335) 
0.0413316

>  <r_epik_Ionization_Penalty_Charging>  (335) 
0.000755183

>  <r_epik_Ionization_Penalty_Neutral>  (335) 
0.0405764

>  <r_epik_State_Penalty>  (335) 
0.0328668

>  <r_epik_Charging_Adjusted_Penalty>  (335) 
0.0336219

>  <i_epik_Tot_Q>  (335) 
1

>  <i_epik_Tot_abs_Q>  (335) 
1

>  <s_epik_Chemistry_Notes>  (335) 
This compound has an imine and may undergo hydrolysis.

>  <s_lp_Force_Field>  (335) 
OPLS3e

>  <r_lp_Energy>  (335) 
54.2797

>  <b_lp_Chiralities_Consistent>  (335) 
1

>  <s_lp_Variant>  (335) 
103:0-1

>  <s_i_glide_gridfile>  (335) 
pfpi4k_grid

>  <i_i_glide_lignum>  (335) 
21

>  <i_i_glide_rotatable_bonds>  (335) 
3

>  <r_i_docking_score>  (335) 
-3.24354

>  <r_i_glide_ligand_efficiency>  (335) 
-0.101361

>  <r_i_glide_ligand_efficiency_sa>  (335) 
-0.3218

>  <r_i_glide_ligand_efficiency_ln>  (335) 
-0.726316

>  <r_i_glide_gscore>  (335) 
-3.24354

>  <r_i_glide_lipo>  (335) 
-0.658448

>  <r_i_glide_hbond>  (335) 
0

>  <r_i_glide_metal>  (335) 
-0

>  <r_i_glide_rewards>  (335) 
-0.549135

>  <r_i_glide_evdw>  (335) 
-29.6541

>  <r_i_glide_ecoul>  (335) 
-5.15918

>  <r_i_glide_erotb>  (335) 
0.213648

>  <r_i_glide_esite>  (335) 
-0.0912424

>  <r_i_glide_emodel>  (335) 
-38.5995

>  <r_i_glide_energy>  (335) 
-34.8132

>  <r_i_glide_einternal>  (335) 
1.47341

>  <r_i_glide_intrahb_reward>  (335) 
-0

>  <i_i_glide_confnum>  (335) 
3

>  <i_i_glide_posenum>  (335) 
28

>  <r_i_glide_eff_state_penalty>  (335) 
0

>  <ligand_id>  (335) 
103

>  <original_smiles>  (335) 
N#CCC1CCC2(CO1)CC1(CC1)Oc1ccc(-c3ccccn3)cc1C21COC(=N)N1

>  <smiles>  (335) 
[H]c1nc(-c2c([H])c([H])c3c(c2[H])C2([N+]([H])=C(N([H])[H])OC2([H])[H])C2(C([H])([H])OC([H])(C([H])([H])C#N)C([H])([H])C2([H])[H])C([H])([H])C2(O3)C([H])([H])C2([H])[H])c([H])c([H])c1[H]

$$$$
103:0:1
     RDKit          3D

 59 64  0  0  1  0  0  0  0  0999 V2000
   -0.1812   -9.0639    6.5529 N   0  0  0  0  0  0  0  0  0  0  0  0
   -0.1888   -9.4508    5.4589 C   0  0  0  0  0  0  0  0  0  0  0  0
   -0.1963   -9.9254    4.0613 C   0  0  0  0  0  0  0  0  0  0  0  0
    1.0260   -9.4592    3.2908 C   0  0  2  0  0  0  0  0  0  0  0  0
    2.2847  -10.0442    3.9360 C   0  0  0  0  0  0  0  0  0  0  0  0
    3.4828   -9.4704    3.2271 C   0  0  0  0  0  0  0  0  0  0  0  0
    3.4581   -7.9129    3.1763 C   0  0  1  0  0  0  0  0  0  0  0  0
    2.0972   -7.4754    2.5556 C   0  0  0  0  0  0  0  0  0  0  0  0
    1.0267   -8.0310    3.2956 O   0  0  0  0  0  0  0  0  0  0  0  0
    3.5782   -7.4506    4.6512 C   0  0  0  0  0  0  0  0  0  0  0  0
    3.4888   -5.9729    4.8429 C   0  0  0  0  0  0  0  0  0  0  0  0
    2.8412   -5.3975    6.0919 C   0  0  0  0  0  0  0  0  0  0  0  0
    2.1661   -5.2300    4.7573 C   0  0  0  0  0  0  0  0  0  0  0  0
    4.6291   -5.2403    4.3740 O   0  0  0  0  0  0  0  0  0  0  0  0
    4.5694   -4.9008    3.0431 C   0  0  0  0  0  0  0  0  0  0  0  0
    4.5548   -3.5260    2.7515 C   0  0  0  0  0  0  0  0  0  0  0  0
    4.4456   -3.0861    1.4263 C   0  0  0  0  0  0  0  0  0  0  0  0
    4.3658   -4.0163    0.3698 C   0  0  0  0  0  0  0  0  0  0  0  0
    4.2421   -3.5535   -1.0148 C   0  0  0  0  0  0  0  0  0  0  0  0
    3.1023   -2.8630   -1.4613 C   0  0  0  0  0  0  0  0  0  0  0  0
    3.0404   -2.4452   -2.8017 C   0  0  0  0  0  0  0  0  0  0  0  0
    4.1255   -2.7282   -3.6496 C   0  0  0  0  0  0  0  0  0  0  0  0
    5.2242   -3.4239   -3.1137 C   0  0  0  0  0  0  0  0  0  0  0  0
    5.2875   -3.8213   -1.8254 N   0  0  0  0  0  0  0  0  0  0  0  0
    4.4112   -5.3948    0.6649 C   0  0  0  0  0  0  0  0  0  0  0  0
    4.5191   -5.8670    1.9874 C   0  0  0  0  0  0  0  0  0  0  0  0
    4.6444   -7.3668    2.2994 C   0  0  2  0  0  0  0  0  0  0  0  0
    4.7869   -8.3834    1.1238 C   0  0  0  0  0  0  0  0  0  0  0  0
    5.7343   -9.3038    1.7171 O   0  0  0  0  0  0  0  0  0  0  0  0
    6.4218   -8.7218    2.7210 C   0  0  0  0  0  0  0  0  0  0  0  0
    7.4880   -9.3476    3.2556 N   0  0  0  0  0  0  0  0  0  0  0  0
    5.9065   -7.5722    3.0115 N   0  0  0  0  0  0  0  0  0  0  0  0
   -0.2322  -11.0192    4.0825 H   0  0  0  0  0  0  0  0  0  0  0  0
   -1.1287   -9.5930    3.5818 H   0  0  0  0  0  0  0  0  0  0  0  0
    0.9190   -9.7926    2.2548 H   0  0  0  0  0  0  0  0  0  0  0  0
    2.3128   -9.8521    5.0088 H   0  0  0  0  0  0  0  0  0  0  0  0
    2.2776  -11.1261    3.8296 H   0  0  0  0  0  0  0  0  0  0  0  0
    4.3965   -9.8379    3.6927 H   0  0  0  0  0  0  0  0  0  0  0  0
    3.4434   -9.9411    2.2376 H   0  0  0  0  0  0  0  0  0  0  0  0
    1.9953   -6.3981    2.5537 H   0  0  0  0  0  0  0  0  0  0  0  0
    2.0152   -7.7622    1.5089 H   0  0  0  0  0  0  0  0  0  0  0  0
    2.7814   -7.8845    5.2502 H   0  0  0  0  0  0  0  0  0  0  0  0
    4.4955   -7.8148    5.1093 H   0  0  0  0  0  0  0  0  0  0  0  0
    2.3800   -6.1121    6.7785 H   0  0  0  0  0  0  0  0  0  0  0  0
    3.2534   -4.5032    6.5519 H   0  0  0  0  0  0  0  0  0  0  0  0
    2.1734   -4.2521    4.2841 H   0  0  0  0  0  0  0  0  0  0  0  0
    1.2792   -5.8412    4.5696 H   0  0  0  0  0  0  0  0  0  0  0  0
    4.6085   -2.8145    3.5584 H   0  0  0  0  0  0  0  0  0  0  0  0
    4.4097   -2.0284    1.2186 H   0  0  0  0  0  0  0  0  0  0  0  0
    2.2799   -2.6374   -0.8021 H   0  0  0  0  0  0  0  0  0  0  0  0
    2.1843   -1.9119   -3.1775 H   0  0  0  0  0  0  0  0  0  0  0  0
    4.1112   -2.4191   -4.6778 H   0  0  0  0  0  0  0  0  0  0  0  0
    6.0783   -3.6628   -3.7311 H   0  0  0  0  0  0  0  0  0  0  0  0
    4.3593   -6.0769   -0.1716 H   0  0  0  0  0  0  0  0  0  0  0  0
    3.7493   -8.7268    0.8126 H   0  0  0  0  0  0  0  0  0  0  0  0
    5.2058   -7.9373    0.2129 H   0  0  0  0  0  0  0  0  0  0  0  0
    8.0531   -8.8154    3.8779 H   0  0  0  0  0  0  0  0  0  0  0  0
    6.2693   -6.9143    3.6616 H   0  0  0  0  0  0  0  0  0  0  0  0
    7.7118  -10.3041    2.9641 H   0  0  0  0  0  0  0  0  0  0  0  0
  1  2  3  0
  2  3  1  0
  3  4  1  0
  3 33  1  0
  3 34  1  0
  4  9  1  0
  4  5  1  0
  4 35  1  6
  5  6  1  0
  5 36  1  0
  5 37  1  0
  7  6  1  1
  6 38  1  0
  6 39  1  0
  7 27  1  0
  7  8  1  0
  7 10  1  0
  8  9  1  0
  8 40  1  0
  8 41  1  0
 10 11  1  0
 10 42  1  0
 10 43  1  0
 11 13  1  0
 11 12  1  0
 11 14  1  0
 12 13  1  0
 12 44  1  0
 12 45  1  0
 13 46  1  0
 13 47  1  0
 14 15  1  0
 15 26  2  0
 15 16  1  0
 16 17  2  0
 16 48  1  0
 17 18  1  0
 17 49  1  0
 18 19  1  0
 18 25  2  0
 19 24  1  0
 19 20  2  0
 20 21  1  0
 20 50  1  0
 21 22  2  0
 21 51  1  0
 22 23  1  0
 22 52  1  0
 23 24  2  0
 23 53  1  0
 25 26  1  0
 25 54  1  0
 26 27  1  0
 27 32  1  0
 27 28  1  6
 28 29  1  0
 28 55  1  0
 28 56  1  0
 29 30  1  0
 30 31  1  0
 30 32  2  0
 31 57  1  0
 31 59  1  0
 32 58  1  0
M  CHG  1  32   1
M  END
>  <i_m_ct_stereo_status>  (336) 
1

>  <s_m_source_file>  (336) 
/var/tmp/pbs.5076255.sched01/tmpmzi298dc/117y2go66iu.sdf

>  <i_m_source_file_index>  (336) 
21

>  <i_lp_mmshare_version>  (336) 
48012

>  <i_f3d_flags>  (336) 
0

>  <s_epik_input>  (336) 
TiNDW0NIMl1bQ0BASF0oT1tDSDJdMSlbQ0gyXVtDSDJdW0NAQF0xMltDQEBdMyhbQ0gyXU8vQyg9Ti9bSF0pW05IXTMpYzRjKE9DNShbQ0gyXTIpW0NIMl1bQ0gyXTUpW2NIXVtjSF1jKFtjSF00KS1jNltjSF1bY0hdW2NIXVtjSF1uNg==

>  <s_epik_cmdline>  (336) 
J2VwaWtfcHl0aG9uJywgJy1waHQnLCAnMi4wJywgJy1waCcsICc3LjAnLCAnLXRuJywgJzgnLCAnLW1hJywgJzIwMCcsICctaW1hZScsICc8aW5maWxlLm1hZT4nLCAnLW9tYWUnLCAnPG91dGZpbGUubWFlPic=

>  <r_lp_tautomer_probability>  (336) 
1

>  <r_epik_Ionization_Penalty>  (336) 
0.0413316

>  <r_epik_Ionization_Penalty_Charging>  (336) 
0.000755183

>  <r_epik_Ionization_Penalty_Neutral>  (336) 
0.0405764

>  <r_epik_State_Penalty>  (336) 
0.0328668

>  <r_epik_Charging_Adjusted_Penalty>  (336) 
0.0336219

>  <i_epik_Tot_Q>  (336) 
1

>  <i_epik_Tot_abs_Q>  (336) 
1

>  <s_epik_Chemistry_Notes>  (336) 
This compound has an imine and may undergo hydrolysis.

>  <s_lp_Force_Field>  (336) 
OPLS3e

>  <r_lp_Energy>  (336) 
54.2797

>  <b_lp_Chiralities_Consistent>  (336) 
1

>  <s_lp_Variant>  (336) 
103:0-1

>  <s_i_glide_gridfile>  (336) 
pfpi4k_grid

>  <i_i_glide_lignum>  (336) 
21

>  <i_i_glide_rotatable_bonds>  (336) 
3

>  <r_i_docking_score>  (336) 
-2.70491

>  <r_i_glide_ligand_efficiency>  (336) 
-0.0845284

>  <r_i_glide_ligand_efficiency_sa>  (336) 
-0.268361

>  <r_i_glide_ligand_efficiency_ln>  (336) 
-0.605703

>  <r_i_glide_gscore>  (336) 
-2.70491

>  <r_i_glide_lipo>  (336) 
-0.574095

>  <r_i_glide_hbond>  (336) 
0

>  <r_i_glide_metal>  (336) 
-0

>  <r_i_glide_rewards>  (336) 
-0.504264

>  <r_i_glide_evdw>  (336) 
-28.8943

>  <r_i_glide_ecoul>  (336) 
-1.98554

>  <r_i_glide_erotb>  (336) 
0.213648

>  <r_i_glide_esite>  (336) 
-0.0976489

>  <r_i_glide_emodel>  (336) 
-33.2757

>  <r_i_glide_energy>  (336) 
-30.8799

>  <r_i_glide_einternal>  (336) 
1.88126

>  <r_i_glide_intrahb_reward>  (336) 
-0

>  <i_i_glide_confnum>  (336) 
3

>  <i_i_glide_posenum>  (336) 
2

>  <r_i_glide_eff_state_penalty>  (336) 
0

>  <ligand_id>  (336) 
103

>  <original_smiles>  (336) 
N#CCC1CCC2(CO1)CC1(CC1)Oc1ccc(-c3ccccn3)cc1C21COC(=N)N1

>  <smiles>  (336) 
[H]c1nc(-c2c([H])c([H])c3c(c2[H])C2([N+]([H])=C(N([H])[H])OC2([H])[H])C2(C([H])([H])OC([H])(C([H])([H])C#N)C([H])([H])C2([H])[H])C([H])([H])C2(O3)C([H])([H])C2([H])[H])c([H])c([H])c1[H]

$$$$
103:0:2
     RDKit          3D

 59 64  0  0  1  0  0  0  0  0999 V2000
   -0.9957    4.4750    3.7614 N   0  0  0  0  0  0  0  0  0  0  0  0
   -0.5219    3.6339    3.1320 C   0  0  0  0  0  0  0  0  0  0  0  0
    0.0873    2.5387    2.3319 C   0  0  0  0  0  0  0  0  0  0  0  0
    0.3430    1.2914    3.1387 C   0  0  2  0  0  0  0  0  0  0  0  0
    1.4086    1.5925    4.2042 C   0  0  0  0  0  0  0  0  0  0  0  0
    1.7191    0.3096    4.9193 C   0  0  0  0  0  0  0  0  0  0  0  0
    2.1108   -0.8433    3.9405 C   0  0  1  0  0  0  0  0  0  0  0  0
    0.9863   -0.9741    2.8818 C   0  0  0  0  0  0  0  0  0  0  0  0
    0.7785    0.2744    2.2388 O   0  0  0  0  0  0  0  0  0  0  0  0
    3.4402   -0.3932    3.2871 C   0  0  0  0  0  0  0  0  0  0  0  0
    3.9587   -1.3296    2.2322 C   0  0  0  0  0  0  0  0  0  0  0  0
    4.6976   -0.7809    1.0307 C   0  0  0  0  0  0  0  0  0  0  0  0
    3.3359   -1.3917    0.8560 C   0  0  0  0  0  0  0  0  0  0  0  0
    4.4607   -2.5638    2.7389 O   0  0  0  0  0  0  0  0  0  0  0  0
    3.5066   -3.5351    2.8875 C   0  0  0  0  0  0  0  0  0  0  0  0
    3.6561   -4.6910    2.1150 C   0  0  0  0  0  0  0  0  0  0  0  0
    2.7061   -5.7163    2.1732 C   0  0  0  0  0  0  0  0  0  0  0  0
    1.5824   -5.6117    3.0189 C   0  0  0  0  0  0  0  0  0  0  0  0
    0.5752   -6.6806    3.0746 C   0  0  0  0  0  0  0  0  0  0  0  0
    0.3556   -7.5572    1.9782 C   0  0  0  0  0  0  0  0  0  0  0  0
   -0.6427   -8.5377    2.1004 C   0  0  0  0  0  0  0  0  0  0  0  0
   -1.3640   -8.6533    3.2812 C   0  0  0  0  0  0  0  0  0  0  0  0
   -1.0866   -7.7415    4.3185 C   0  0  0  0  0  0  0  0  0  0  0  0
   -0.1558   -6.7733    4.2023 N   0  0  0  0  0  0  0  0  0  0  0  0
    1.4472   -4.4503    3.8201 C   0  0  0  0  0  0  0  0  0  0  0  0
    2.3912   -3.4139    3.7806 C   0  0  0  0  0  0  0  0  0  0  0  0
    2.2909   -2.1960    4.7151 C   0  0  2  0  0  0  0  0  0  0  0  0
    1.1589   -2.1948    5.8007 C   0  0  0  0  0  0  0  0  0  0  0  0
    1.9018   -1.5256    6.8951 O   0  0  0  0  0  0  0  0  0  0  0  0
    3.2490   -1.7023    6.7095 C   0  0  0  0  0  0  0  0  0  0  0  0
    4.0445   -1.3539    7.7190 N   0  0  0  0  0  0  0  0  0  0  0  0
    3.4706   -2.1245    5.5331 N   0  0  0  0  0  0  0  0  0  0  0  0
   -0.5647    2.3211    1.4850 H   0  0  0  0  0  0  0  0  0  0  0  0
    1.0438    2.9031    1.9434 H   0  0  0  0  0  0  0  0  0  0  0  0
   -0.6054    0.9774    3.5870 H   0  0  0  0  0  0  0  0  0  0  0  0
    2.2963    2.0460    3.7564 H   0  0  0  0  0  0  0  0  0  0  0  0
    1.0221    2.3193    4.9193 H   0  0  0  0  0  0  0  0  0  0  0  0
    2.5023    0.4760    5.6555 H   0  0  0  0  0  0  0  0  0  0  0  0
    0.8004    0.1114    5.4739 H   0  0  0  0  0  0  0  0  0  0  0  0
    1.2222   -1.7268    2.1309 H   0  0  0  0  0  0  0  0  0  0  0  0
    0.0547   -1.3257    3.3220 H   0  0  0  0  0  0  0  0  0  0  0  0
    3.3156    0.5697    2.7944 H   0  0  0  0  0  0  0  0  0  0  0  0
    4.2172   -0.2288    4.0354 H   0  0  0  0  0  0  0  0  0  0  0  0
    4.7472    0.3043    0.9239 H   0  0  0  0  0  0  0  0  0  0  0  0
    5.5362   -1.3363    0.6146 H   0  0  0  0  0  0  0  0  0  0  0  0
    3.2460   -2.3727    0.3909 H   0  0  0  0  0  0  0  0  0  0  0  0
    2.5094   -0.7075    0.6649 H   0  0  0  0  0  0  0  0  0  0  0  0
    4.5071   -4.7791    1.4548 H   0  0  0  0  0  0  0  0  0  0  0  0
    2.8489   -6.5853    1.5479 H   0  0  0  0  0  0  0  0  0  0  0  0
    0.9223   -7.4803    1.0701 H   0  0  0  0  0  0  0  0  0  0  0  0
   -0.8795   -9.2111    1.2957 H   0  0  0  0  0  0  0  0  0  0  0  0
   -2.1133   -9.4213    3.4016 H   0  0  0  0  0  0  0  0  0  0  0  0
   -1.6343   -7.7873    5.2398 H   0  0  0  0  0  0  0  0  0  0  0  0
    0.5891   -4.3866    4.4684 H   0  0  0  0  0  0  0  0  0  0  0  0
    0.2511   -1.6964    5.3863 H   0  0  0  0  0  0  0  0  0  0  0  0
    0.8296   -3.1761    6.1394 H   0  0  0  0  0  0  0  0  0  0  0  0
    5.0343   -1.5936    7.5883 H   0  0  0  0  0  0  0  0  0  0  0  0
    4.3885   -2.4101    5.1738 H   0  0  0  0  0  0  0  0  0  0  0  0
    3.7354   -0.9091    8.5468 H   0  0  0  0  0  0  0  0  0  0  0  0
  1  2  3  0
  2  3  1  0
  3  4  1  0
  3 33  1  0
  3 34  1  0
  4  9  1  0
  4  5  1  0
  4 35  1  1
  5  6  1  0
  5 36  1  0
  5 37  1  0
  7  6  1  1
  6 38  1  0
  6 39  1  0
  7 27  1  0
  7  8  1  0
  7 10  1  0
  8  9  1  0
  8 40  1  0
  8 41  1  0
 10 11  1  0
 10 42  1  0
 10 43  1  0
 11 13  1  0
 11 12  1  0
 11 14  1  0
 12 13  1  0
 12 44  1  0
 12 45  1  0
 13 46  1  0
 13 47  1  0
 14 15  1  0
 15 26  2  0
 15 16  1  0
 16 17  2  0
 16 48  1  0
 17 18  1  0
 17 49  1  0
 18 19  1  0
 18 25  2  0
 19 24  1  0
 19 20  2  0
 20 21  1  0
 20 50  1  0
 21 22  2  0
 21 51  1  0
 22 23  1  0
 22 52  1  0
 23 24  2  0
 23 53  1  0
 25 26  1  0
 25 54  1  0
 26 27  1  0
 27 32  1  0
 27 28  1  1
 28 29  1  0
 28 55  1  0
 28 56  1  0
 29 30  1  0
 30 31  1  0
 30 32  2  0
 31 57  1  0
 31 59  1  0
 32 58  1  0
M  CHG  1  32   1
M  END
>  <i_m_ct_stereo_status>  (337) 
1

>  <s_m_source_file>  (337) 
/var/tmp/pbs.5076255.sched01/tmpmzi298dc/117y2go66iu.sdf

>  <i_m_source_file_index>  (337) 
21

>  <i_lp_mmshare_version>  (337) 
48012

>  <i_f3d_flags>  (337) 
0

>  <s_epik_input>  (337) 
TiNDW0NIMl1bQ0BASF0oT1tDSDJdMSlbQ0gyXVtDSDJdW0NAQF0xMltDQEBdMyhbQ0gyXU8vQyg9Ti9bSF0pW05IXTMpYzRjKE9DNShbQ0gyXTIpW0NIMl1bQ0gyXTUpW2NIXVtjSF1jKFtjSF00KS1jNltjSF1bY0hdW2NIXVtjSF1uNg==

>  <s_epik_cmdline>  (337) 
J2VwaWtfcHl0aG9uJywgJy1waHQnLCAnMi4wJywgJy1waCcsICc3LjAnLCAnLXRuJywgJzgnLCAnLW1hJywgJzIwMCcsICctaW1hZScsICc8aW5maWxlLm1hZT4nLCAnLW9tYWUnLCAnPG91dGZpbGUubWFlPic=

>  <r_lp_tautomer_probability>  (337) 
1

>  <r_epik_Ionization_Penalty>  (337) 
0.0413316

>  <r_epik_Ionization_Penalty_Charging>  (337) 
0.000755183

>  <r_epik_Ionization_Penalty_Neutral>  (337) 
0.0405764

>  <r_epik_State_Penalty>  (337) 
0.0328668

>  <r_epik_Charging_Adjusted_Penalty>  (337) 
0.0336219

>  <i_epik_Tot_Q>  (337) 
1

>  <i_epik_Tot_abs_Q>  (337) 
1

>  <s_epik_Chemistry_Notes>  (337) 
This compound has an imine and may undergo hydrolysis.

>  <s_lp_Force_Field>  (337) 
OPLS3e

>  <r_lp_Energy>  (337) 
54.2797

>  <b_lp_Chiralities_Consistent>  (337) 
1

>  <s_lp_Variant>  (337) 
103:0-1

>  <s_i_glide_gridfile>  (337) 
pfpi4k_grid

>  <i_i_glide_lignum>  (337) 
21

>  <i_i_glide_rotatable_bonds>  (337) 
3

>  <r_i_docking_score>  (337) 
-2.53463

>  <r_i_glide_ligand_efficiency>  (337) 
-0.0792073

>  <r_i_glide_ligand_efficiency_sa>  (337) 
-0.251467

>  <r_i_glide_ligand_efficiency_ln>  (337) 
-0.567573

>  <r_i_glide_gscore>  (337) 
-2.53463

>  <r_i_glide_lipo>  (337) 
-0.117387

>  <r_i_glide_hbond>  (337) 
-0.0286491

>  <r_i_glide_metal>  (337) 
-0

>  <r_i_glide_rewards>  (337) 
-0.466999

>  <r_i_glide_evdw>  (337) 
-21.1749

>  <r_i_glide_ecoul>  (337) 
-6.50999

>  <r_i_glide_erotb>  (337) 
0.213648

>  <r_i_glide_esite>  (337) 
-0.1

>  <r_i_glide_emodel>  (337) 
-31.0005

>  <r_i_glide_energy>  (337) 
-27.6849

>  <r_i_glide_einternal>  (337) 
0.137594

>  <r_i_glide_intrahb_reward>  (337) 
-0

>  <i_i_glide_confnum>  (337) 
6

>  <i_i_glide_posenum>  (337) 
3

>  <r_i_glide_eff_state_penalty>  (337) 
0

>  <ligand_id>  (337) 
103

>  <original_smiles>  (337) 
N#CCC1CCC2(CO1)CC1(CC1)Oc1ccc(-c3ccccn3)cc1C21COC(=N)N1

>  <smiles>  (337) 
[H]c1nc(-c2c([H])c([H])c3c(c2[H])C2([N+]([H])=C(N([H])[H])OC2([H])[H])C2(C([H])([H])OC([H])(C([H])([H])C#N)C([H])([H])C2([H])[H])C([H])([H])C2(O3)C([H])([H])C2([H])[H])c([H])c([H])c1[H]

$$$$
103:1:0
     RDKit          3D

 58 63  0  0  1  0  0  0  0  0999 V2000
   -2.0416   -4.2519    7.4748 N   0  0  0  0  0  0  0  0  0  0  0  0
   -0.9517   -3.9957    7.1753 C   0  0  0  0  0  0  0  0  0  0  0  0
    0.4278   -3.6727    6.7791 C   0  0  0  0  0  0  0  0  0  0  0  0
    0.7296   -4.2233    5.3867 C   0  0  2  0  0  0  0  0  0  0  0  0
    0.8014   -5.7721    5.4466 C   0  0  0  0  0  0  0  0  0  0  0  0
    1.2405   -6.3113    4.0906 C   0  0  0  0  0  0  0  0  0  0  0  0
    2.5223   -5.5921    3.5228 C   0  0  1  0  0  0  0  0  0  0  0  0
    2.2751   -4.0510    3.6203 C   0  0  0  0  0  0  0  0  0  0  0  0
    1.9700   -3.6740    4.9520 O   0  0  0  0  0  0  0  0  0  0  0  0
    3.7190   -5.9686    4.4711 C   0  0  0  0  0  0  0  0  0  0  0  0
    5.0074   -5.2269    4.1817 C   0  0  0  0  0  0  0  0  0  0  0  0
    5.9903   -4.9727    5.3036 C   0  0  0  0  0  0  0  0  0  0  0  0
    5.2710   -3.8142    4.6527 C   0  0  0  0  0  0  0  0  0  0  0  0
    5.6592   -5.6001    2.9743 O   0  0  0  0  0  0  0  0  0  0  0  0
    5.1925   -4.9584    1.8509 C   0  0  0  0  0  0  0  0  0  0  0  0
    6.1299   -4.1626    1.1670 C   0  0  0  0  0  0  0  0  0  0  0  0
    5.7466   -3.3917    0.0553 C   0  0  0  0  0  0  0  0  0  0  0  0
    4.4133   -3.4061   -0.3976 C   0  0  0  0  0  0  0  0  0  0  0  0
    3.9767   -2.6085   -1.5640 C   0  0  0  0  0  0  0  0  0  0  0  0
    2.9627   -3.0458   -2.4478 C   0  0  0  0  0  0  0  0  0  0  0  0
    2.6127   -2.2501   -3.5496 C   0  0  0  0  0  0  0  0  0  0  0  0
    3.2621   -1.0185   -3.7207 C   0  0  0  0  0  0  0  0  0  0  0  0
    4.2324   -0.6454   -2.7745 C   0  0  0  0  0  0  0  0  0  0  0  0
    4.6002   -1.4230   -1.7378 N   0  0  0  0  0  0  0  0  0  0  0  0
    3.4878   -4.2198    0.2736 C   0  0  0  0  0  0  0  0  0  0  0  0
    3.8486   -5.0366    1.3731 C   0  0  0  0  0  0  0  0  0  0  0  0
    2.8077   -5.9849    2.0087 C   0  0  2  0  0  0  0  0  0  0  0  0
    1.4662   -6.1132    1.2062 C   0  0  0  0  0  0  0  0  0  0  0  0
    1.1830   -7.4881    1.3013 O   0  0  0  0  0  0  0  0  0  0  0  0
    2.3532   -8.0946    1.6568 C   0  0  0  0  0  0  0  0  0  0  0  0
    2.3178   -9.4788    1.5538 N   0  0  0  0  0  0  0  0  0  0  0  0
    3.3281   -7.3314    1.9736 N   0  0  0  0  0  0  0  0  0  0  0  0
    0.5575   -2.5876    6.8027 H   0  0  0  0  0  0  0  0  0  0  0  0
    1.1190   -4.1175    7.5003 H   0  0  0  0  0  0  0  0  0  0  0  0
   -0.0446   -3.8807    4.6862 H   0  0  0  0  0  0  0  0  0  0  0  0
    1.4825   -6.0966    6.2463 H   0  0  0  0  0  0  0  0  0  0  0  0
   -0.1931   -6.1865    5.6828 H   0  0  0  0  0  0  0  0  0  0  0  0
    1.3997   -7.3851    4.1905 H   0  0  0  0  0  0  0  0  0  0  0  0
    0.3275   -6.1686    3.4869 H   0  0  0  0  0  0  0  0  0  0  0  0
    3.1143   -3.4335    3.2893 H   0  0  0  0  0  0  0  0  0  0  0  0
    1.4822   -3.7412    2.9490 H   0  0  0  0  0  0  0  0  0  0  0  0
    3.4882   -5.7482    5.5210 H   0  0  0  0  0  0  0  0  0  0  0  0
    3.9146   -7.0480    4.4721 H   0  0  0  0  0  0  0  0  0  0  0  0
    5.6828   -5.2207    6.3202 H   0  0  0  0  0  0  0  0  0  0  0  0
    7.0545   -5.0545    5.0989 H   0  0  0  0  0  0  0  0  0  0  0  0
    5.8217   -3.1730    3.9761 H   0  0  0  0  0  0  0  0  0  0  0  0
    4.4827   -3.3280    5.2215 H   0  0  0  0  0  0  0  0  0  0  0  0
    7.1470   -4.1090    1.5175 H   0  0  0  0  0  0  0  0  0  0  0  0
    6.4734   -2.7697   -0.4478 H   0  0  0  0  0  0  0  0  0  0  0  0
    2.4486   -3.9760   -2.3035 H   0  0  0  0  0  0  0  0  0  0  0  0
    1.8339   -2.5661   -4.2372 H   0  0  0  0  0  0  0  0  0  0  0  0
    3.0083   -0.3550   -4.5300 H   0  0  0  0  0  0  0  0  0  0  0  0
    4.7415    0.3019   -2.8403 H   0  0  0  0  0  0  0  0  0  0  0  0
    2.4728   -4.1626   -0.0828 H   0  0  0  0  0  0  0  0  0  0  0  0
    0.6863   -5.4686    1.6404 H   0  0  0  0  0  0  0  0  0  0  0  0
    1.5391   -5.9259    0.1209 H   0  0  0  0  0  0  0  0  0  0  0  0
    3.1163  -10.0847    1.7433 H   0  0  0  0  0  0  0  0  0  0  0  0
    1.5189   -9.9637    1.1460 H   0  0  0  0  0  0  0  0  0  0  0  0
  1  2  3  0
  2  3  1  0
  3  4  1  0
  3 33  1  0
  3 34  1  0
  4  9  1  0
  4  5  1  0
  4 35  1  6
  5  6  1  0
  5 36  1  0
  5 37  1  0
  7  6  1  1
  6 38  1  0
  6 39  1  0
  7 27  1  0
  7  8  1  0
  7 10  1  0
  8  9  1  0
  8 40  1  0
  8 41  1  0
 10 11  1  0
 10 42  1  0
 10 43  1  0
 11 13  1  0
 11 12  1  0
 11 14  1  0
 12 13  1  0
 12 44  1  0
 12 45  1  0
 13 46  1  0
 13 47  1  0
 14 15  1  0
 15 26  2  0
 15 16  1  0
 16 17  2  0
 16 48  1  0
 17 18  1  0
 17 49  1  0
 18 19  1  0
 18 25  2  0
 19 24  1  0
 19 20  2  0
 20 21  1  0
 20 50  1  0
 21 22  2  0
 21 51  1  0
 22 23  1  0
 22 52  1  0
 23 24  2  0
 23 53  1  0
 25 26  1  0
 25 54  1  0
 26 27  1  0
 27 32  1  0
 27 28  1  6
 28 29  1  0
 28 55  1  0
 28 56  1  0
 29 30  1  0
 30 31  1  0
 30 32  2  0
 31 57  1  0
 31 58  1  0
M  END
>  <i_m_ct_stereo_status>  (338) 
1

>  <s_m_source_file>  (338) 
/var/tmp/pbs.5076255.sched01/tmpmzi298dc/117y2go66iu.sdf

>  <i_m_source_file_index>  (338) 
22

>  <i_lp_mmshare_version>  (338) 
48012

>  <i_f3d_flags>  (338) 
0

>  <s_epik_input>  (338) 
TiNDW0NIMl1bQ0BASF0oT1tDSDJdMSlbQ0gyXVtDSDJdW0NAQF0xMltDQEBdMyhbQ0gyXU8vQyg9Ti9bSF0pW05IXTMpYzRjKE9DNShbQ0gyXTIpW0NIMl1bQ0gyXTUpW2NIXVtjSF1jKFtjSF00KS1jNltjSF1bY0hdW2NIXVtjSF1uNg==

>  <s_epik_cmdline>  (338) 
J2VwaWtfcHl0aG9uJywgJy1waHQnLCAnMi4wJywgJy1waCcsICc3LjAnLCAnLXRuJywgJzgnLCAnLW1hJywgJzIwMCcsICctaW1hZScsICc8aW5maWxlLm1hZT4nLCAnLW9tYWUnLCAnPG91dGZpbGUubWFlPic=

>  <r_lp_tautomer_probability>  (338) 
1

>  <r_epik_Ionization_Penalty>  (338) 
1.63078

>  <r_epik_Ionization_Penalty_Charging>  (338) 
1.62935

>  <r_epik_Ionization_Penalty_Neutral>  (338) 
0.00143599

>  <r_epik_State_Penalty>  (338) 
1.72975

>  <r_epik_Charging_Adjusted_Penalty>  (338) 
3.35909

>  <i_epik_Tot_Q>  (338) 
0

>  <i_epik_Tot_abs_Q>  (338) 
0

>  <s_epik_Chemistry_Notes>  (338) 
This compound has an imine and may undergo hydrolysis.

>  <s_lp_Force_Field>  (338) 
OPLS3e

>  <r_lp_Energy>  (338) 
48.3697

>  <b_lp_Chiralities_Consistent>  (338) 
1

>  <s_lp_Variant>  (338) 
103:0-2

>  <s_i_glide_gridfile>  (338) 
pfpi4k_grid

>  <i_i_glide_lignum>  (338) 
22

>  <i_i_glide_rotatable_bonds>  (338) 
3

>  <r_i_docking_score>  (338) 
-3.46675

>  <r_i_glide_ligand_efficiency>  (338) 
-0.108336

>  <r_i_glide_ligand_efficiency_sa>  (338) 
-0.343945

>  <r_i_glide_ligand_efficiency_ln>  (338) 
-0.7763

>  <r_i_glide_gscore>  (338) 
-3.46675

>  <r_i_glide_lipo>  (338) 
-0.8225

>  <r_i_glide_hbond>  (338) 
-0.237769

>  <r_i_glide_metal>  (338) 
-0

>  <r_i_glide_rewards>  (338) 
-0.473871

>  <r_i_glide_evdw>  (338) 
-32.9115

>  <r_i_glide_ecoul>  (338) 
-3.02679

>  <r_i_glide_erotb>  (338) 
0.214555

>  <r_i_glide_esite>  (338) 
-0.04757

>  <r_i_glide_emodel>  (338) 
-42.4068

>  <r_i_glide_energy>  (338) 
-35.9383

>  <r_i_glide_einternal>  (338) 
0.161679

>  <r_i_glide_intrahb_reward>  (338) 
-0

>  <i_i_glide_confnum>  (338) 
6

>  <i_i_glide_posenum>  (338) 
35

>  <r_i_glide_eff_state_penalty>  (338) 
0

>  <ligand_id>  (338) 
103

>  <original_smiles>  (338) 
N#CCC1CCC2(CO1)CC1(CC1)Oc1ccc(-c3ccccn3)cc1C21COC(=N)N1

>  <smiles>  (338) 
[H]c1nc(-c2c([H])c([H])c3c(c2[H])C2(N=C(N([H])[H])OC2([H])[H])C2(C([H])([H])OC([H])(C([H])([H])C#N)C([H])([H])C2([H])[H])C([H])([H])C2(O3)C([H])([H])C2([H])[H])c([H])c([H])c1[H]

$$$$
103:1:1
     RDKit          3D

 58 63  0  0  1  0  0  0  0  0999 V2000
   -2.1351   -4.2485    7.2926 N   0  0  0  0  0  0  0  0  0  0  0  0
   -1.0320   -4.0012    7.0403 C   0  0  0  0  0  0  0  0  0  0  0  0
    0.3658   -3.6896    6.6993 C   0  0  0  0  0  0  0  0  0  0  0  0
    0.7232   -4.2413    5.3173 C   0  0  2  0  0  0  0  0  0  0  0  0
    0.8279   -5.7897    5.3889 C   0  0  0  0  0  0  0  0  0  0  0  0
    1.3219   -6.3247    4.0497 C   0  0  0  0  0  0  0  0  0  0  0  0
    2.6058   -5.5799    3.5191 C   0  0  1  0  0  0  0  0  0  0  0  0
    2.3203   -4.0435    3.6006 C   0  0  0  0  0  0  0  0  0  0  0  0
    1.9666   -3.6668    4.9181 O   0  0  0  0  0  0  0  0  0  0  0  0
    3.7813   -5.9236    4.5066 C   0  0  0  0  0  0  0  0  0  0  0  0
    5.0628   -5.1530    4.2528 C   0  0  0  0  0  0  0  0  0  0  0  0
    6.0007   -4.8723    5.4061 C   0  0  0  0  0  0  0  0  0  0  0  0
    5.2734   -3.7345    4.7272 C   0  0  0  0  0  0  0  0  0  0  0  0
    5.7593   -5.5149    3.0675 O   0  0  0  0  0  0  0  0  0  0  0  0
    5.3090   -4.8902    1.9279 C   0  0  0  0  0  0  0  0  0  0  0  0
    6.2472   -4.0778    1.2665 C   0  0  0  0  0  0  0  0  0  0  0  0
    5.8838   -3.3293    0.1332 C   0  0  0  0  0  0  0  0  0  0  0  0
    4.5682   -3.3818   -0.3680 C   0  0  0  0  0  0  0  0  0  0  0  0
    4.1551   -2.5890   -1.5453 C   0  0  0  0  0  0  0  0  0  0  0  0
    4.6406   -1.2915   -1.7770 C   0  0  0  0  0  0  0  0  0  0  0  0
    4.2202   -0.5950   -2.9218 C   0  0  0  0  0  0  0  0  0  0  0  0
    3.3313   -1.2245   -3.8190 C   0  0  0  0  0  0  0  0  0  0  0  0
    2.8811   -2.5167   -3.5067 C   0  0  0  0  0  0  0  0  0  0  0  0
    3.2782   -3.1736   -2.3993 N   0  0  0  0  0  0  0  0  0  0  0  0
    3.6396   -4.2088    0.2822 C   0  0  0  0  0  0  0  0  0  0  0  0
    3.9821   -5.0018    1.4060 C   0  0  0  0  0  0  0  0  0  0  0  0
    2.9457   -5.9721    2.0136 C   0  0  2  0  0  0  0  0  0  0  0  0
    1.6323   -6.1367    1.1751 C   0  0  0  0  0  0  0  0  0  0  0  0
    1.3692   -7.5134    1.3009 O   0  0  0  0  0  0  0  0  0  0  0  0
    2.5534   -8.0957    1.6594 C   0  0  0  0  0  0  0  0  0  0  0  0
    2.5556   -9.4801    1.5437 N   0  0  0  0  0  0  0  0  0  0  0  0
    3.5066   -7.3039    2.0004 N   0  0  0  0  0  0  0  0  0  0  0  0
    0.5012   -2.6069    6.7269 H   0  0  0  0  0  0  0  0  0  0  0  0
    1.0244   -4.1392    7.4457 H   0  0  0  0  0  0  0  0  0  0  0  0
   -0.0347   -3.9189    4.5894 H   0  0  0  0  0  0  0  0  0  0  0  0
    1.4908   -6.0938    6.2147 H   0  0  0  0  0  0  0  0  0  0  0  0
   -0.1666   -6.2231    5.5981 H   0  0  0  0  0  0  0  0  0  0  0  0
    1.5020   -7.3926    4.1654 H   0  0  0  0  0  0  0  0  0  0  0  0
    0.4240   -6.2062    3.4226 H   0  0  0  0  0  0  0  0  0  0  0  0
    3.1539   -3.4051    3.2921 H   0  0  0  0  0  0  0  0  0  0  0  0
    1.5445   -3.7548    2.9012 H   0  0  0  0  0  0  0  0  0  0  0  0
    3.5117   -5.7031    5.5480 H   0  0  0  0  0  0  0  0  0  0  0  0
    3.9996   -6.9990    4.5196 H   0  0  0  0  0  0  0  0  0  0  0  0
    5.6666   -5.1230    6.4136 H   0  0  0  0  0  0  0  0  0  0  0  0
    7.0736   -4.9252    5.2388 H   0  0  0  0  0  0  0  0  0  0  0  0
    5.8192   -3.0826    4.0575 H   0  0  0  0  0  0  0  0  0  0  0  0
    4.4591   -3.2629    5.2687 H   0  0  0  0  0  0  0  0  0  0  0  0
    7.2514   -3.9970    1.6472 H   0  0  0  0  0  0  0  0  0  0  0  0
    6.6092   -2.6897   -0.3488 H   0  0  0  0  0  0  0  0  0  0  0  0
    5.3096   -0.8348   -1.0656 H   0  0  0  0  0  0  0  0  0  0  0  0
    4.5705    0.4084   -3.1074 H   0  0  0  0  0  0  0  0  0  0  0  0
    2.9798   -0.7204   -4.7052 H   0  0  0  0  0  0  0  0  0  0  0  0
    2.1897   -3.0444   -4.1550 H   0  0  0  0  0  0  0  0  0  0  0  0
    2.6345   -4.1751   -0.1085 H   0  0  0  0  0  0  0  0  0  0  0  0
    0.8317   -5.4934    1.5674 H   0  0  0  0  0  0  0  0  0  0  0  0
    1.7386   -5.9653    0.0879 H   0  0  0  0  0  0  0  0  0  0  0  0
    3.3575  -10.0731    1.7764 H   0  0  0  0  0  0  0  0  0  0  0  0
    1.7659   -9.9908    1.1502 H   0  0  0  0  0  0  0  0  0  0  0  0
  1  2  3  0
  2  3  1  0
  3  4  1  0
  3 33  1  0
  3 34  1  0
  4  9  1  0
  4  5  1  0
  4 35  1  6
  5  6  1  0
  5 36  1  0
  5 37  1  0
  7  6  1  1
  6 38  1  0
  6 39  1  0
  7 27  1  0
  7  8  1  0
  7 10  1  0
  8  9  1  0
  8 40  1  0
  8 41  1  0
 10 11  1  0
 10 42  1  0
 10 43  1  0
 11 13  1  0
 11 12  1  0
 11 14  1  0
 12 13  1  0
 12 44  1  0
 12 45  1  0
 13 46  1  0
 13 47  1  0
 14 15  1  0
 15 26  2  0
 15 16  1  0
 16 17  2  0
 16 48  1  0
 17 18  1  0
 17 49  1  0
 18 19  1  0
 18 25  2  0
 19 24  1  0
 19 20  2  0
 20 21  1  0
 20 50  1  0
 21 22  2  0
 21 51  1  0
 22 23  1  0
 22 52  1  0
 23 24  2  0
 23 53  1  0
 25 26  1  0
 25 54  1  0
 26 27  1  0
 27 32  1  0
 27 28  1  6
 28 29  1  0
 28 55  1  0
 28 56  1  0
 29 30  1  0
 30 31  1  0
 30 32  2  0
 31 57  1  0
 31 58  1  0
M  END
>  <i_m_ct_stereo_status>  (339) 
1

>  <s_m_source_file>  (339) 
/var/tmp/pbs.5076255.sched01/tmpmzi298dc/117y2go66iu.sdf

>  <i_m_source_file_index>  (339) 
22

>  <i_lp_mmshare_version>  (339) 
48012

>  <i_f3d_flags>  (339) 
0

>  <s_epik_input>  (339) 
TiNDW0NIMl1bQ0BASF0oT1tDSDJdMSlbQ0gyXVtDSDJdW0NAQF0xMltDQEBdMyhbQ0gyXU8vQyg9Ti9bSF0pW05IXTMpYzRjKE9DNShbQ0gyXTIpW0NIMl1bQ0gyXTUpW2NIXVtjSF1jKFtjSF00KS1jNltjSF1bY0hdW2NIXVtjSF1uNg==

>  <s_epik_cmdline>  (339) 
J2VwaWtfcHl0aG9uJywgJy1waHQnLCAnMi4wJywgJy1waCcsICc3LjAnLCAnLXRuJywgJzgnLCAnLW1hJywgJzIwMCcsICctaW1hZScsICc8aW5maWxlLm1hZT4nLCAnLW9tYWUnLCAnPG91dGZpbGUubWFlPic=

>  <r_lp_tautomer_probability>  (339) 
1

>  <r_epik_Ionization_Penalty>  (339) 
1.63078

>  <r_epik_Ionization_Penalty_Charging>  (339) 
1.62935

>  <r_epik_Ionization_Penalty_Neutral>  (339) 
0.00143599

>  <r_epik_State_Penalty>  (339) 
1.72975

>  <r_epik_Charging_Adjusted_Penalty>  (339) 
3.35909

>  <i_epik_Tot_Q>  (339) 
0

>  <i_epik_Tot_abs_Q>  (339) 
0

>  <s_epik_Chemistry_Notes>  (339) 
This compound has an imine and may undergo hydrolysis.

>  <s_lp_Force_Field>  (339) 
OPLS3e

>  <r_lp_Energy>  (339) 
48.3697

>  <b_lp_Chiralities_Consistent>  (339) 
1

>  <s_lp_Variant>  (339) 
103:0-2

>  <s_i_glide_gridfile>  (339) 
pfpi4k_grid

>  <i_i_glide_lignum>  (339) 
22

>  <i_i_glide_rotatable_bonds>  (339) 
3

>  <r_i_docking_score>  (339) 
-2.93927

>  <r_i_glide_ligand_efficiency>  (339) 
-0.0918521

>  <r_i_glide_ligand_efficiency_sa>  (339) 
-0.291612

>  <r_i_glide_ligand_efficiency_ln>  (339) 
-0.658182

>  <r_i_glide_gscore>  (339) 
-2.93927

>  <r_i_glide_lipo>  (339) 
-0.797161

>  <r_i_glide_hbond>  (339) 
-0.105299

>  <r_i_glide_metal>  (339) 
-0

>  <r_i_glide_rewards>  (339) 
-0.473871

>  <r_i_glide_evdw>  (339) 
-34.2092

>  <r_i_glide_ecoul>  (339) 
-0.12815

>  <r_i_glide_erotb>  (339) 
0.214555

>  <r_i_glide_esite>  (339) 
-0.0478066

>  <r_i_glide_emodel>  (339) 
-39.6879

>  <r_i_glide_energy>  (339) 
-34.3374

>  <r_i_glide_einternal>  (339) 
0.312761

>  <r_i_glide_intrahb_reward>  (339) 
-0

>  <i_i_glide_confnum>  (339) 
6

>  <i_i_glide_posenum>  (339) 
2

>  <r_i_glide_eff_state_penalty>  (339) 
0

>  <ligand_id>  (339) 
103

>  <original_smiles>  (339) 
N#CCC1CCC2(CO1)CC1(CC1)Oc1ccc(-c3ccccn3)cc1C21COC(=N)N1

>  <smiles>  (339) 
[H]c1nc(-c2c([H])c([H])c3c(c2[H])C2(N=C(N([H])[H])OC2([H])[H])C2(C([H])([H])OC([H])(C([H])([H])C#N)C([H])([H])C2([H])[H])C([H])([H])C2(O3)C([H])([H])C2([H])[H])c([H])c([H])c1[H]

$$$$
103:1:2
     RDKit          3D

 58 63  0  0  1  0  0  0  0  0999 V2000
    3.7842   -0.3018   -4.7187 N   0  0  0  0  0  0  0  0  0  0  0  0
    4.0705   -1.2731   -4.1789 C   0  0  0  0  0  0  0  0  0  0  0  0
    4.4226   -2.5295   -3.4723 C   0  0  0  0  0  0  0  0  0  0  0  0
    3.8475   -2.5441   -2.0572 C   0  0  2  0  0  0  0  0  0  0  0  0
    4.3565   -1.3166   -1.2720 C   0  0  0  0  0  0  0  0  0  0  0  0
    3.9024   -1.3908    0.1697 C   0  0  0  0  0  0  0  0  0  0  0  0
    4.2078   -2.7745    0.8241 C   0  0  1  0  0  0  0  0  0  0  0  0
    3.6772   -3.8691   -0.1397 C   0  0  0  0  0  0  0  0  0  0  0  0
    4.2701   -3.7399   -1.4197 O   0  0  0  0  0  0  0  0  0  0  0  0
    5.7629   -2.9007    0.9430 C   0  0  0  0  0  0  0  0  0  0  0  0
    6.2467   -4.2536    1.4097 C   0  0  0  0  0  0  0  0  0  0  0  0
    7.5996   -4.7636    0.9631 C   0  0  0  0  0  0  0  0  0  0  0  0
    6.3432   -5.4534    0.4956 C   0  0  0  0  0  0  0  0  0  0  0  0
    5.9615   -4.5521    2.7725 O   0  0  0  0  0  0  0  0  0  0  0  0
    4.7122   -5.0688    3.0048 C   0  0  0  0  0  0  0  0  0  0  0  0
    4.6702   -6.3646    3.5506 C   0  0  0  0  0  0  0  0  0  0  0  0
    3.4462   -7.0173    3.7571 C   0  0  0  0  0  0  0  0  0  0  0  0
    2.2326   -6.3838    3.4223 C   0  0  0  0  0  0  0  0  0  0  0  0
    0.9345   -7.0469    3.6285 C   0  0  0  0  0  0  0  0  0  0  0  0
    0.7023   -7.8652    4.7519 C   0  0  0  0  0  0  0  0  0  0  0  0
   -0.5478   -8.4856    4.9002 C   0  0  0  0  0  0  0  0  0  0  0  0
   -1.5286   -8.2636    3.9233 C   0  0  0  0  0  0  0  0  0  0  0  0
   -1.1962   -7.4508    2.8658 C   0  0  0  0  0  0  0  0  0  0  0  0
   -0.0278   -6.8183    2.6974 N   0  0  0  0  0  0  0  0  0  0  0  0
    2.2830   -5.0773    2.9048 C   0  0  0  0  0  0  0  0  0  0  0  0
    3.4976   -4.3807    2.7160 C   0  0  0  0  0  0  0  0  0  0  0  0
    3.4969   -2.9177    2.2246 C   0  0  2  0  0  0  0  0  0  0  0  0
    2.0779   -2.2682    2.1775 C   0  0  0  0  0  0  0  0  0  0  0  0
    2.2998   -0.9848    2.7136 O   0  0  0  0  0  0  0  0  0  0  0  0
    3.4884   -1.0437    3.3597 C   0  0  0  0  0  0  0  0  0  0  0  0
    3.7710    0.0823    4.1163 N   0  0  0  0  0  0  0  0  0  0  0  0
    4.1944   -2.0916    3.1886 N   0  0  0  0  0  0  0  0  0  0  0  0
    4.0435   -3.3798   -4.0472 H   0  0  0  0  0  0  0  0  0  0  0  0
    5.5028   -2.6104   -3.4167 H   0  0  0  0  0  0  0  0  0  0  0  0
    2.7525   -2.5547   -2.1209 H   0  0  0  0  0  0  0  0  0  0  0  0
    5.4443   -1.2483   -1.3293 H   0  0  0  0  0  0  0  0  0  0  0  0
    3.9593   -0.3996   -1.7159 H   0  0  0  0  0  0  0  0  0  0  0  0
    4.3374   -0.5751    0.7406 H   0  0  0  0  0  0  0  0  0  0  0  0
    2.8482   -1.1548    0.0831 H   0  0  0  0  0  0  0  0  0  0  0  0
    3.8822   -4.8690    0.2252 H   0  0  0  0  0  0  0  0  0  0  0  0
    2.5961   -3.8442   -0.2320 H   0  0  0  0  0  0  0  0  0  0  0  0
    6.2385   -2.7331   -0.0259 H   0  0  0  0  0  0  0  0  0  0  0  0
    6.1835   -2.1240    1.5857 H   0  0  0  0  0  0  0  0  0  0  0  0
    8.1400   -4.1725    0.2218 H   0  0  0  0  0  0  0  0  0  0  0  0
    8.2182   -5.3116    1.6683 H   0  0  0  0  0  0  0  0  0  0  0  0
    6.1007   -6.4265    0.9130 H   0  0  0  0  0  0  0  0  0  0  0  0
    6.0232   -5.2950   -0.5322 H   0  0  0  0  0  0  0  0  0  0  0  0
    5.5930   -6.8759    3.7822 H   0  0  0  0  0  0  0  0  0  0  0  0
    3.4340   -8.0247    4.1537 H   0  0  0  0  0  0  0  0  0  0  0  0
    1.4700   -8.0188    5.4909 H   0  0  0  0  0  0  0  0  0  0  0  0
   -0.7499   -9.1191    5.7515 H   0  0  0  0  0  0  0  0  0  0  0  0
   -2.5028   -8.7281    4.0098 H   0  0  0  0  0  0  0  0  0  0  0  0
   -1.9745   -7.2276    2.1497 H   0  0  0  0  0  0  0  0  0  0  0  0
    1.3286   -4.6473    2.6603 H   0  0  0  0  0  0  0  0  0  0  0  0
    1.6267   -2.2715    1.1882 H   0  0  0  0  0  0  0  0  0  0  0  0
    1.3330   -2.7007    2.8333 H   0  0  0  0  0  0  0  0  0  0  0  0
    4.6438    0.1963    4.6170 H   0  0  0  0  0  0  0  0  0  0  0  0
    3.1178    0.8466    4.2063 H   0  0  0  0  0  0  0  0  0  0  0  0
  1  2  3  0
  2  3  1  0
  3  4  1  0
  3 33  1  0
  3 34  1  0
  4  9  1  0
  4  5  1  0
  4 35  1  6
  5  6  1  0
  5 36  1  0
  5 37  1  0
  7  6  1  6
  6 38  1  0
  6 39  1  0
  7 27  1  0
  7  8  1  0
  7 10  1  0
  8  9  1  0
  8 40  1  0
  8 41  1  0
 10 11  1  0
 10 42  1  0
 10 43  1  0
 11 13  1  0
 11 12  1  0
 11 14  1  0
 12 13  1  0
 12 44  1  0
 12 45  1  0
 13 46  1  0
 13 47  1  0
 14 15  1  0
 15 26  2  0
 15 16  1  0
 16 17  2  0
 16 48  1  0
 17 18  1  0
 17 49  1  0
 18 19  1  0
 18 25  2  0
 19 24  1  0
 19 20  2  0
 20 21  1  0
 20 50  1  0
 21 22  2  0
 21 51  1  0
 22 23  1  0
 22 52  1  0
 23 24  2  0
 23 53  1  0
 25 26  1  0
 25 54  1  0
 26 27  1  0
 27 32  1  0
 27 28  1  6
 28 29  1  0
 28 55  1  0
 28 56  1  0
 29 30  1  0
 30 31  1  0
 30 32  2  0
 31 57  1  0
 31 58  1  0
M  END
>  <i_m_ct_stereo_status>  (340) 
1

>  <s_m_source_file>  (340) 
/var/tmp/pbs.5076255.sched01/tmpmzi298dc/117y2go66iu.sdf

>  <i_m_source_file_index>  (340) 
22

>  <i_lp_mmshare_version>  (340) 
48012

>  <i_f3d_flags>  (340) 
0

>  <s_epik_input>  (340) 
TiNDW0NIMl1bQ0BASF0oT1tDSDJdMSlbQ0gyXVtDSDJdW0NAQF0xMltDQEBdMyhbQ0gyXU8vQyg9Ti9bSF0pW05IXTMpYzRjKE9DNShbQ0gyXTIpW0NIMl1bQ0gyXTUpW2NIXVtjSF1jKFtjSF00KS1jNltjSF1bY0hdW2NIXVtjSF1uNg==

>  <s_epik_cmdline>  (340) 
J2VwaWtfcHl0aG9uJywgJy1waHQnLCAnMi4wJywgJy1waCcsICc3LjAnLCAnLXRuJywgJzgnLCAnLW1hJywgJzIwMCcsICctaW1hZScsICc8aW5maWxlLm1hZT4nLCAnLW9tYWUnLCAnPG91dGZpbGUubWFlPic=

>  <r_lp_tautomer_probability>  (340) 
1

>  <r_epik_Ionization_Penalty>  (340) 
1.63078

>  <r_epik_Ionization_Penalty_Charging>  (340) 
1.62935

>  <r_epik_Ionization_Penalty_Neutral>  (340) 
0.00143599

>  <r_epik_State_Penalty>  (340) 
1.72975

>  <r_epik_Charging_Adjusted_Penalty>  (340) 
3.35909

>  <i_epik_Tot_Q>  (340) 
0

>  <i_epik_Tot_abs_Q>  (340) 
0

>  <s_epik_Chemistry_Notes>  (340) 
This compound has an imine and may undergo hydrolysis.

>  <s_lp_Force_Field>  (340) 
OPLS3e

>  <r_lp_Energy>  (340) 
48.3697

>  <b_lp_Chiralities_Consistent>  (340) 
1

>  <s_lp_Variant>  (340) 
103:0-2

>  <s_i_glide_gridfile>  (340) 
pfpi4k_grid

>  <i_i_glide_lignum>  (340) 
22

>  <i_i_glide_rotatable_bonds>  (340) 
3

>  <r_i_docking_score>  (340) 
-2.79162

>  <r_i_glide_ligand_efficiency>  (340) 
-0.0872381

>  <r_i_glide_ligand_efficiency_sa>  (340) 
-0.276964

>  <r_i_glide_ligand_efficiency_ln>  (340) 
-0.625119

>  <r_i_glide_gscore>  (340) 
-2.79162

>  <r_i_glide_lipo>  (340) 
-0.535023

>  <r_i_glide_hbond>  (340) 
-0.095257

>  <r_i_glide_metal>  (340) 
-0

>  <r_i_glide_rewards>  (340) 
-0.478647

>  <r_i_glide_evdw>  (340) 
-33.3353

>  <r_i_glide_ecoul>  (340) 
-1.49576

>  <r_i_glide_erotb>  (340) 
0.214555

>  <r_i_glide_esite>  (340) 
-0.00611952

>  <r_i_glide_emodel>  (340) 
-39.6061

>  <r_i_glide_energy>  (340) 
-34.831

>  <r_i_glide_einternal>  (340) 
0.0449948

>  <r_i_glide_intrahb_reward>  (340) 
-0

>  <i_i_glide_confnum>  (340) 
4

>  <i_i_glide_posenum>  (340) 
9

>  <r_i_glide_eff_state_penalty>  (340) 
0

>  <ligand_id>  (340) 
103

>  <original_smiles>  (340) 
N#CCC1CCC2(CO1)CC1(CC1)Oc1ccc(-c3ccccn3)cc1C21COC(=N)N1

>  <smiles>  (340) 
[H]c1nc(-c2c([H])c([H])c3c(c2[H])C2(N=C(N([H])[H])OC2([H])[H])C2(C([H])([H])OC([H])(C([H])([H])C#N)C([H])([H])C2([H])[H])C([H])([H])C2(O3)C([H])([H])C2([H])[H])c([H])c([H])c1[H]

$$$$
104:0:0
     RDKit          3D

 38 40  0  0  1  0  0  0  0  0999 V2000
    3.5744   -7.4546    2.4773 C   0  0  0  0  0  0  0  0  0  0  0  0
    2.6117   -6.8392    1.5940 N   0  0  0  0  0  0  0  0  0  0  0  0
    1.3380   -7.2060    1.3665 C   0  0  0  0  0  0  0  0  0  0  0  0
    0.6734   -6.4498    0.5007 N   0  0  0  0  0  0  0  0  0  0  0  0
    1.6133   -5.5224    0.0799 N   0  0  0  0  0  0  0  0  0  0  0  0
    2.7292   -5.7721    0.7708 C   0  0  0  0  0  0  0  0  0  0  0  0
    3.9922   -4.9490    0.7241 C   0  0  0  0  0  0  0  0  0  0  0  0
    4.0901   -4.3341   -0.6388 N   0  0  2  0  0  0  0  0  0  0  0  0
    5.4248   -3.7843   -0.9377 C   0  0  0  0  0  0  0  0  0  0  0  0
    5.2413   -2.9221   -2.1828 C   0  0  0  0  0  0  0  0  0  0  0  0
    3.7448   -2.5391   -2.1843 C   0  0  1  0  0  0  0  0  0  0  0  0
    3.5377   -1.0237   -2.1012 C   0  0  0  0  0  0  0  0  0  0  0  0
    3.9404   -0.3643   -3.4144 C   0  0  0  0  0  0  0  0  0  0  0  0
    3.2439   -1.0416   -4.5973 C   0  0  0  0  0  0  0  0  0  0  0  0
    3.5250   -2.4291   -4.5754 O   0  0  0  0  0  0  0  0  0  0  0  0
    3.0203   -3.0952   -3.4334 C   0  0  0  0  0  0  0  0  0  0  0  0
    3.1806   -3.1999   -0.9301 C   0  0  0  0  0  0  0  0  0  0  0  0
    3.0598   -8.1689    3.1129 H   0  0  0  0  0  0  0  0  0  0  0  0
    4.0449   -6.6976    3.0990 H   0  0  0  0  0  0  0  0  0  0  0  0
    4.3253   -7.9733    1.8853 H   0  0  0  0  0  0  0  0  0  0  0  0
    0.8768   -8.0546    1.8361 H   0  0  0  0  0  0  0  0  0  0  0  0
    3.9744   -4.1942    1.5136 H   0  0  0  0  0  0  0  0  0  0  0  0
    4.8467   -5.6030    0.9161 H   0  0  0  0  0  0  0  0  0  0  0  0
    5.7348   -3.1360   -0.1176 H   0  0  0  0  0  0  0  0  0  0  0  0
    6.1856   -4.5471   -1.0636 H   0  0  0  0  0  0  0  0  0  0  0  0
    5.9036   -2.0572   -2.1471 H   0  0  0  0  0  0  0  0  0  0  0  0
    5.5117   -3.4839   -3.0788 H   0  0  0  0  0  0  0  0  0  0  0  0
    2.4847   -0.8228   -1.9599 H   0  0  0  0  0  0  0  0  0  0  0  0
    4.0439   -0.5757   -1.2418 H   0  0  0  0  0  0  0  0  0  0  0  0
    3.7128    0.7016   -3.3968 H   0  0  0  0  0  0  0  0  0  0  0  0
    5.0132   -0.4773   -3.5232 H   0  0  0  0  0  0  0  0  0  0  0  0
    2.1707   -0.8850   -4.5665 H   0  0  0  0  0  0  0  0  0  0  0  0
    3.5921   -0.6213   -5.5395 H   0  0  0  0  0  0  0  0  0  0  0  0
    3.2166   -4.1575   -3.5668 H   0  0  0  0  0  0  0  0  0  0  0  0
    1.9314   -2.9965   -3.3695 H   0  0  0  0  0  0  0  0  0  0  0  0
    2.1273   -3.4316   -1.1042 H   0  0  0  0  0  0  0  0  0  0  0  0
    3.2129   -2.5197   -0.0788 H   0  0  0  0  0  0  0  0  0  0  0  0
    3.8974   -5.0405   -1.3431 H   0  0  0  0  0  0  0  0  0  0  0  0
  1  2  1  0
  1 18  1  0
  1 19  1  0
  1 20  1  0
  2  6  1  0
  2  3  1  0
  3  4  2  0
  3 21  1  0
  4  5  1  0
  5  6  2  0
  6  7  1  0
  7  8  1  0
  7 22  1  0
  7 23  1  0
  8 17  1  0
  8  9  1  0
  8 38  1  6
  9 10  1  0
  9 24  1  0
  9 25  1  0
 11 10  1  6
 10 26  1  0
 10 27  1  0
 11 16  1  0
 11 12  1  0
 11 17  1  0
 12 13  1  0
 12 28  1  0
 12 29  1  0
 13 14  1  0
 13 30  1  0
 13 31  1  0
 14 15  1  0
 14 32  1  0
 14 33  1  0
 15 16  1  0
 16 34  1  0
 16 35  1  0
 17 36  1  0
 17 37  1  0
M  CHG  1   8   1
M  END
>  <i_m_ct_stereo_status>  (341) 
1

>  <s_m_source_file>  (341) 
/var/tmp/pbs.5076255.sched01/tmpmzi298dc/117y2go66iu.sdf

>  <i_m_source_file_index>  (341) 
23

>  <i_lp_mmshare_version>  (341) 
48012

>  <i_f3d_flags>  (341) 
0

>  <s_epik_input>  (341) 
W0NIM11uMVtjSF1ubmMxW0NIMl1OKFtDSDJdMilbQ0gyXVtDSDJdW0NAXTIzW0NIMl1bQ0gyXVtDSDJdT1tDSDJdMw==

>  <s_epik_cmdline>  (341) 
J2VwaWtfcHl0aG9uJywgJy1waHQnLCAnMi4wJywgJy1waCcsICc3LjAnLCAnLXRuJywgJzgnLCAnLW1hJywgJzIwMCcsICctaW1hZScsICc8aW5maWxlLm1hZT4nLCAnLW9tYWUnLCAnPG91dGZpbGUubWFlPic=

>  <r_lp_tautomer_probability>  (341) 
1

>  <r_epik_Ionization_Penalty>  (341) 
0.313963

>  <r_epik_Ionization_Penalty_Charging>  (341) 
0.313962

>  <r_epik_Ionization_Penalty_Neutral>  (341) 
7.25444e-07

>  <r_epik_State_Penalty>  (341) 
0.308144

>  <r_epik_Charging_Adjusted_Penalty>  (341) 
0.622106

>  <i_epik_Tot_Q>  (341) 
1

>  <i_epik_Tot_abs_Q>  (341) 
1

>  <s_lp_Force_Field>  (341) 
OPLS3e

>  <r_lp_Energy>  (341) 
17.5594

>  <b_lp_Chiralities_Consistent>  (341) 
1

>  <s_lp_Variant>  (341) 
104:0-1

>  <s_i_glide_gridfile>  (341) 
pfpi4k_grid

>  <i_i_glide_lignum>  (341) 
23

>  <i_i_glide_rotatable_bonds>  (341) 
2

>  <r_i_docking_score>  (341) 
-5.02681

>  <r_i_glide_ligand_efficiency>  (341) 
-0.295695

>  <r_i_glide_ligand_efficiency_sa>  (341) 
-0.760314

>  <r_i_glide_ligand_efficiency_ln>  (341) 
-1.31138

>  <r_i_glide_gscore>  (341) 
-5.02681

>  <r_i_glide_lipo>  (341) 
-0.643764

>  <r_i_glide_hbond>  (341) 
-0.32

>  <r_i_glide_metal>  (341) 
-0

>  <r_i_glide_rewards>  (341) 
-1.79099

>  <r_i_glide_evdw>  (341) 
-13.7205

>  <r_i_glide_ecoul>  (341) 
-12.6034

>  <r_i_glide_erotb>  (341) 
0.61209

>  <r_i_glide_esite>  (341) 
-0.307604

>  <r_i_glide_emodel>  (341) 
-34.7804

>  <r_i_glide_energy>  (341) 
-26.3239

>  <r_i_glide_einternal>  (341) 
0.784537

>  <r_i_glide_intrahb_reward>  (341) 
-0

>  <i_i_glide_confnum>  (341) 
2

>  <i_i_glide_posenum>  (341) 
33

>  <r_i_glide_eff_state_penalty>  (341) 
0

>  <ligand_id>  (341) 
104

>  <original_smiles>  (341) 
Cn1cnnc1CN1CCC2(CCCOC2)C1

>  <smiles>  (341) 
[H]c1nnc(C([H])([H])[N+]2([H])C([H])([H])C([H])([H])C3(C([H])([H])OC([H])([H])C([H])([H])C3([H])[H])C2([H])[H])n1C([H])([H])[H]

$$$$
104:0:1
     RDKit          3D

 38 40  0  0  1  0  0  0  0  0999 V2000
    4.2182   -7.7236    2.2453 C   0  0  0  0  0  0  0  0  0  0  0  0
    3.2432   -6.9083    1.5672 N   0  0  0  0  0  0  0  0  0  0  0  0
    1.9519   -7.2034    1.3057 C   0  0  0  0  0  0  0  0  0  0  0  0
    1.2626   -6.2513    0.6930 N   0  0  0  0  0  0  0  0  0  0  0  0
    2.1770   -5.2259    0.5388 N   0  0  0  0  0  0  0  0  0  0  0  0
    3.3332   -5.6683    1.0343 C   0  0  0  0  0  0  0  0  0  0  0  0
    4.5993   -4.8551    1.1251 C   0  0  0  0  0  0  0  0  0  0  0  0
    4.9765   -4.4614   -0.2717 N   0  0  2  0  0  0  0  0  0  0  0  0
    6.3251   -3.8635   -0.3740 C   0  0  0  0  0  0  0  0  0  0  0  0
    6.3750   -3.1798   -1.7505 C   0  0  0  0  0  0  0  0  0  0  0  0
    4.9078   -2.9079   -2.1216 C   0  0  1  0  0  0  0  0  0  0  0  0
    4.6175   -1.4054   -2.3043 C   0  0  0  0  0  0  0  0  0  0  0  0
    3.1717   -1.2101   -2.7602 C   0  0  0  0  0  0  0  0  0  0  0  0
    2.8535   -2.0782   -3.9869 C   0  0  0  0  0  0  0  0  0  0  0  0
    3.1387   -3.4457   -3.7348 O   0  0  0  0  0  0  0  0  0  0  0  0
    4.4997   -3.6821   -3.4013 C   0  0  0  0  0  0  0  0  0  0  0  0
    4.1143   -3.4533   -0.9226 C   0  0  0  0  0  0  0  0  0  0  0  0
    3.7201   -8.5648    2.7233 H   0  0  0  0  0  0  0  0  0  0  0  0
    4.7136   -7.1363    3.0153 H   0  0  0  0  0  0  0  0  0  0  0  0
    4.9532   -8.0945    1.5317 H   0  0  0  0  0  0  0  0  0  0  0  0
    1.4999   -8.1364    1.5699 H   0  0  0  0  0  0  0  0  0  0  0  0
    4.4264   -3.9866    1.7624 H   0  0  0  0  0  0  0  0  0  0  0  0
    5.4022   -5.4467    1.5698 H   0  0  0  0  0  0  0  0  0  0  0  0
    6.4214   -3.0898    0.3894 H   0  0  0  0  0  0  0  0  0  0  0  0
    7.1411   -4.5753   -0.2202 H   0  0  0  0  0  0  0  0  0  0  0  0
    6.9805   -2.2737   -1.7249 H   0  0  0  0  0  0  0  0  0  0  0  0
    6.8427   -3.8418   -2.4783 H   0  0  0  0  0  0  0  0  0  0  0  0
    4.8224   -0.8183   -1.3958 H   0  0  0  0  0  0  0  0  0  0  0  0
    5.2697   -1.0187   -3.0756 H   0  0  0  0  0  0  0  0  0  0  0  0
    2.5289   -1.4939   -1.9334 H   0  0  0  0  0  0  0  0  0  0  0  0
    2.9730   -0.1619   -2.9814 H   0  0  0  0  0  0  0  0  0  0  0  0
    1.8055   -1.9876   -4.2661 H   0  0  0  0  0  0  0  0  0  0  0  0
    3.4395   -1.7486   -4.8394 H   0  0  0  0  0  0  0  0  0  0  0  0
    5.1236   -3.4320   -4.2523 H   0  0  0  0  0  0  0  0  0  0  0  0
    4.6270   -4.7477   -3.2489 H   0  0  0  0  0  0  0  0  0  0  0  0
    3.1440   -3.8185   -1.2617 H   0  0  0  0  0  0  0  0  0  0  0  0
    3.9221   -2.6634   -0.1934 H   0  0  0  0  0  0  0  0  0  0  0  0
    4.9611   -5.2711   -0.8777 H   0  0  0  0  0  0  0  0  0  0  0  0
  1  2  1  0
  1 18  1  0
  1 19  1  0
  1 20  1  0
  2  6  1  0
  2  3  1  0
  3  4  2  0
  3 21  1  0
  4  5  1  0
  5  6  2  0
  6  7  1  0
  7  8  1  0
  7 22  1  0
  7 23  1  0
  8 17  1  0
  8  9  1  0
  8 38  1  6
  9 10  1  0
  9 24  1  0
  9 25  1  0
 11 10  1  1
 10 26  1  0
 10 27  1  0
 11 16  1  0
 11 12  1  0
 11 17  1  0
 12 13  1  0
 12 28  1  0
 12 29  1  0
 13 14  1  0
 13 30  1  0
 13 31  1  0
 14 15  1  0
 14 32  1  0
 14 33  1  0
 15 16  1  0
 16 34  1  0
 16 35  1  0
 17 36  1  0
 17 37  1  0
M  CHG  1   8   1
M  END
>  <i_m_ct_stereo_status>  (342) 
1

>  <s_m_source_file>  (342) 
/var/tmp/pbs.5076255.sched01/tmpmzi298dc/117y2go66iu.sdf

>  <i_m_source_file_index>  (342) 
23

>  <i_lp_mmshare_version>  (342) 
48012

>  <i_f3d_flags>  (342) 
0

>  <s_epik_input>  (342) 
W0NIM11uMVtjSF1ubmMxW0NIMl1OKFtDSDJdMilbQ0gyXVtDSDJdW0NAXTIzW0NIMl1bQ0gyXVtDSDJdT1tDSDJdMw==

>  <s_epik_cmdline>  (342) 
J2VwaWtfcHl0aG9uJywgJy1waHQnLCAnMi4wJywgJy1waCcsICc3LjAnLCAnLXRuJywgJzgnLCAnLW1hJywgJzIwMCcsICctaW1hZScsICc8aW5maWxlLm1hZT4nLCAnLW9tYWUnLCAnPG91dGZpbGUubWFlPic=

>  <r_lp_tautomer_probability>  (342) 
1

>  <r_epik_Ionization_Penalty>  (342) 
0.313963

>  <r_epik_Ionization_Penalty_Charging>  (342) 
0.313962

>  <r_epik_Ionization_Penalty_Neutral>  (342) 
7.25444e-07

>  <r_epik_State_Penalty>  (342) 
0.308144

>  <r_epik_Charging_Adjusted_Penalty>  (342) 
0.622106

>  <i_epik_Tot_Q>  (342) 
1

>  <i_epik_Tot_abs_Q>  (342) 
1

>  <s_lp_Force_Field>  (342) 
OPLS3e

>  <r_lp_Energy>  (342) 
17.5594

>  <b_lp_Chiralities_Consistent>  (342) 
1

>  <s_lp_Variant>  (342) 
104:0-1

>  <s_i_glide_gridfile>  (342) 
pfpi4k_grid

>  <i_i_glide_lignum>  (342) 
23

>  <i_i_glide_rotatable_bonds>  (342) 
2

>  <r_i_docking_score>  (342) 
-3.40032

>  <r_i_glide_ligand_efficiency>  (342) 
-0.200019

>  <r_i_glide_ligand_efficiency_sa>  (342) 
-0.514305

>  <r_i_glide_ligand_efficiency_ln>  (342) 
-0.887068

>  <r_i_glide_gscore>  (342) 
-3.40032

>  <r_i_glide_lipo>  (342) 
-0.438278

>  <r_i_glide_hbond>  (342) 
0

>  <r_i_glide_metal>  (342) 
-0

>  <r_i_glide_rewards>  (342) 
-1.8644

>  <r_i_glide_evdw>  (342) 
-19.1808

>  <r_i_glide_ecoul>  (342) 
-3.84883

>  <r_i_glide_erotb>  (342) 
0.61209

>  <r_i_glide_esite>  (342) 
-0.173367

>  <r_i_glide_emodel>  (342) 
-28.7597

>  <r_i_glide_energy>  (342) 
-23.0296

>  <r_i_glide_einternal>  (342) 
0.243055

>  <r_i_glide_intrahb_reward>  (342) 
-0

>  <i_i_glide_confnum>  (342) 
1

>  <i_i_glide_posenum>  (342) 
29

>  <r_i_glide_eff_state_penalty>  (342) 
0

>  <ligand_id>  (342) 
104

>  <original_smiles>  (342) 
Cn1cnnc1CN1CCC2(CCCOC2)C1

>  <smiles>  (342) 
[H]c1nnc(C([H])([H])[N+]2([H])C([H])([H])C([H])([H])C3(C([H])([H])OC([H])([H])C([H])([H])C3([H])[H])C2([H])[H])n1C([H])([H])[H]

$$$$
104:0:2
     RDKit          3D

 38 40  0  0  1  0  0  0  0  0999 V2000
    6.1388   -5.3868    3.5508 C   0  0  0  0  0  0  0  0  0  0  0  0
    4.7350   -5.5664    3.2814 N   0  0  0  0  0  0  0  0  0  0  0  0
    3.7199   -5.7067    4.1568 C   0  0  0  0  0  0  0  0  0  0  0  0
    2.5242   -5.8989    3.6200 N   0  0  0  0  0  0  0  0  0  0  0  0
    2.7569   -5.9298    2.2635 N   0  0  0  0  0  0  0  0  0  0  0  0
    4.0571   -5.6807    2.1068 C   0  0  0  0  0  0  0  0  0  0  0  0
    4.7527   -5.6151    0.7860 C   0  0  0  0  0  0  0  0  0  0  0  0
    4.3005   -4.3443    0.1122 N   0  0  2  0  0  0  0  0  0  0  0  0
    2.8666   -4.2527   -0.2199 C   0  0  0  0  0  0  0  0  0  0  0  0
    2.7681   -3.1338   -1.2322 C   0  0  0  0  0  0  0  0  0  0  0  0
    4.1562   -3.0065   -1.8784 C   0  0  1  0  0  0  0  0  0  0  0  0
    4.0870   -3.2295   -3.4031 C   0  0  0  0  0  0  0  0  0  0  0  0
    3.3407   -2.0634   -4.0481 C   0  0  0  0  0  0  0  0  0  0  0  0
    3.9675   -0.7205   -3.6694 C   0  0  0  0  0  0  0  0  0  0  0  0
    4.0162   -0.6010   -2.2616 O   0  0  0  0  0  0  0  0  0  0  0  0
    4.7741   -1.6059   -1.6078 C   0  0  0  0  0  0  0  0  0  0  0  0
    4.9942   -4.0830   -1.1628 C   0  0  0  0  0  0  0  0  0  0  0  0
    6.2822   -5.1541    4.6084 H   0  0  0  0  0  0  0  0  0  0  0  0
    6.5280   -4.5799    2.9369 H   0  0  0  0  0  0  0  0  0  0  0  0
    6.6816   -6.3003    3.3115 H   0  0  0  0  0  0  0  0  0  0  0  0
    3.8792   -5.7070    5.2220 H   0  0  0  0  0  0  0  0  0  0  0  0
    5.8359   -5.6107    0.9242 H   0  0  0  0  0  0  0  0  0  0  0  0
    4.4895   -6.5072    0.2142 H   0  0  0  0  0  0  0  0  0  0  0  0
    2.5351   -5.1740   -0.6848 H   0  0  0  0  0  0  0  0  0  0  0  0
    2.1989   -4.0063    0.6083 H   0  0  0  0  0  0  0  0  0  0  0  0
    1.9347   -3.3172   -1.9145 H   0  0  0  0  0  0  0  0  0  0  0  0
    2.5407   -2.2413   -0.6646 H   0  0  0  0  0  0  0  0  0  0  0  0
    5.1014   -3.2977   -3.7940 H   0  0  0  0  0  0  0  0  0  0  0  0
    3.6077   -4.1829   -3.6713 H   0  0  0  0  0  0  0  0  0  0  0  0
    3.3938   -2.1684   -5.1173 H   0  0  0  0  0  0  0  0  0  0  0  0
    2.2809   -2.0634   -3.7820 H   0  0  0  0  0  0  0  0  0  0  0  0
    4.9723   -0.6651   -4.0744 H   0  0  0  0  0  0  0  0  0  0  0  0
    3.3981    0.1116   -4.0883 H   0  0  0  0  0  0  0  0  0  0  0  0
    4.7644   -1.3819   -0.5379 H   0  0  0  0  0  0  0  0  0  0  0  0
    5.8105   -1.5442   -1.9269 H   0  0  0  0  0  0  0  0  0  0  0  0
    6.0487   -3.8140   -1.0502 H   0  0  0  0  0  0  0  0  0  0  0  0
    4.9722   -4.9964   -1.7576 H   0  0  0  0  0  0  0  0  0  0  0  0
    4.4935   -3.5451    0.7007 H   0  0  0  0  0  0  0  0  0  0  0  0
  1  2  1  0
  1 18  1  0
  1 19  1  0
  1 20  1  0
  2  6  1  0
  2  3  1  0
  3  4  2  0
  3 21  1  0
  4  5  1  0
  5  6  2  0
  6  7  1  0
  7  8  1  0
  7 22  1  0
  7 23  1  0
  8 17  1  0
  8  9  1  0
  8 38  1  1
  9 10  1  0
  9 24  1  0
  9 25  1  0
 11 10  1  1
 10 26  1  0
 10 27  1  0
 11 16  1  0
 11 12  1  0
 11 17  1  0
 12 13  1  0
 12 28  1  0
 12 29  1  0
 13 14  1  0
 13 30  1  0
 13 31  1  0
 14 15  1  0
 14 32  1  0
 14 33  1  0
 15 16  1  0
 16 34  1  0
 16 35  1  0
 17 36  1  0
 17 37  1  0
M  CHG  1   8   1
M  END
>  <i_m_ct_stereo_status>  (343) 
1

>  <s_m_source_file>  (343) 
/var/tmp/pbs.5076255.sched01/tmpmzi298dc/117y2go66iu.sdf

>  <i_m_source_file_index>  (343) 
23

>  <i_lp_mmshare_version>  (343) 
48012

>  <i_f3d_flags>  (343) 
0

>  <s_epik_input>  (343) 
W0NIM11uMVtjSF1ubmMxW0NIMl1OKFtDSDJdMilbQ0gyXVtDSDJdW0NAXTIzW0NIMl1bQ0gyXVtDSDJdT1tDSDJdMw==

>  <s_epik_cmdline>  (343) 
J2VwaWtfcHl0aG9uJywgJy1waHQnLCAnMi4wJywgJy1waCcsICc3LjAnLCAnLXRuJywgJzgnLCAnLW1hJywgJzIwMCcsICctaW1hZScsICc8aW5maWxlLm1hZT4nLCAnLW9tYWUnLCAnPG91dGZpbGUubWFlPic=

>  <r_lp_tautomer_probability>  (343) 
1

>  <r_epik_Ionization_Penalty>  (343) 
0.313963

>  <r_epik_Ionization_Penalty_Charging>  (343) 
0.313962

>  <r_epik_Ionization_Penalty_Neutral>  (343) 
7.25444e-07

>  <r_epik_State_Penalty>  (343) 
0.308144

>  <r_epik_Charging_Adjusted_Penalty>  (343) 
0.622106

>  <i_epik_Tot_Q>  (343) 
1

>  <i_epik_Tot_abs_Q>  (343) 
1

>  <s_lp_Force_Field>  (343) 
OPLS3e

>  <r_lp_Energy>  (343) 
17.5594

>  <b_lp_Chiralities_Consistent>  (343) 
1

>  <s_lp_Variant>  (343) 
104:0-1

>  <s_i_glide_gridfile>  (343) 
pfpi4k_grid

>  <i_i_glide_lignum>  (343) 
23

>  <i_i_glide_rotatable_bonds>  (343) 
2

>  <r_i_docking_score>  (343) 
-2.71354

>  <r_i_glide_ligand_efficiency>  (343) 
-0.15962

>  <r_i_glide_ligand_efficiency_sa>  (343) 
-0.410428

>  <r_i_glide_ligand_efficiency_ln>  (343) 
-0.707903

>  <r_i_glide_gscore>  (343) 
-2.71354

>  <r_i_glide_lipo>  (343) 
-0.507636

>  <r_i_glide_hbond>  (343) 
0

>  <r_i_glide_metal>  (343) 
-0

>  <r_i_glide_rewards>  (343) 
-1.80496

>  <r_i_glide_evdw>  (343) 
-15.8045

>  <r_i_glide_ecoul>  (343) 
-1.45043

>  <r_i_glide_erotb>  (343) 
0.61209

>  <r_i_glide_esite>  (343) 
-0.00524463

>  <r_i_glide_emodel>  (343) 
-21.2194

>  <r_i_glide_energy>  (343) 
-17.255

>  <r_i_glide_einternal>  (343) 
1.17978

>  <r_i_glide_intrahb_reward>  (343) 
-0

>  <i_i_glide_confnum>  (343) 
4

>  <i_i_glide_posenum>  (343) 
23

>  <r_i_glide_eff_state_penalty>  (343) 
0

>  <ligand_id>  (343) 
104

>  <original_smiles>  (343) 
Cn1cnnc1CN1CCC2(CCCOC2)C1

>  <smiles>  (343) 
[H]c1nnc(C([H])([H])[N+]2([H])C([H])([H])C([H])([H])C3(C([H])([H])OC([H])([H])C([H])([H])C3([H])[H])C2([H])[H])n1C([H])([H])[H]

$$$$
104:1:0
     RDKit          3D

 37 39  0  0  1  0  0  0  0  0999 V2000
    3.8584   -8.2245    1.9380 C   0  0  0  0  0  0  0  0  0  0  0  0
    2.8415   -7.2973    1.4955 N   0  0  0  0  0  0  0  0  0  0  0  0
    1.5355   -7.5142    1.3773 C   0  0  0  0  0  0  0  0  0  0  0  0
    0.8207   -6.4524    0.9487 N   0  0  0  0  0  0  0  0  0  0  0  0
    1.7674   -5.4668    0.7899 N   0  0  0  0  0  0  0  0  0  0  0  0
    2.9562   -6.0304    1.0823 C   0  0  0  0  0  0  0  0  0  0  0  0
    4.2538   -5.2570    0.9931 C   0  0  0  0  0  0  0  0  0  0  0  0
    4.4893   -4.5378   -0.2593 N   0  0  0  0  0  0  0  0  0  0  0  0
    5.7548   -3.8219   -0.2643 C   0  0  0  0  0  0  0  0  0  0  0  0
    5.6491   -2.8941   -1.4713 C   0  0  0  0  0  0  0  0  0  0  0  0
    4.1401   -2.6664   -1.6754 C   0  0  1  0  0  0  0  0  0  0  0  0
    3.7189   -1.1886   -1.5637 C   0  0  0  0  0  0  0  0  0  0  0  0
    4.2226   -0.4118   -2.7755 C   0  0  0  0  0  0  0  0  0  0  0  0
    3.7746   -1.0930   -4.0793 C   0  0  0  0  0  0  0  0  0  0  0  0
    4.2062   -2.4419   -4.1009 O   0  0  0  0  0  0  0  0  0  0  0  0
    3.6456   -3.2208   -3.0348 C   0  0  0  0  0  0  0  0  0  0  0  0
    3.5238   -3.4782   -0.5412 C   0  0  0  0  0  0  0  0  0  0  0  0
    3.3900   -9.1157    2.3451 H   0  0  0  0  0  0  0  0  0  0  0  0
    4.4724   -7.7707    2.7225 H   0  0  0  0  0  0  0  0  0  0  0  0
    4.5009   -8.5137    1.1044 H   0  0  0  0  0  0  0  0  0  0  0  0
    1.0548   -8.4679    1.5888 H   0  0  0  0  0  0  0  0  0  0  0  0
    4.2697   -4.5704    1.8423 H   0  0  0  0  0  0  0  0  0  0  0  0
    5.0697   -5.9621    1.1350 H   0  0  0  0  0  0  0  0  0  0  0  0
    5.8538   -3.2216    0.6457 H   0  0  0  0  0  0  0  0  0  0  0  0
    6.6205   -4.4840   -0.3241 H   0  0  0  0  0  0  0  0  0  0  0  0
    6.1968   -1.9716   -1.2840 H   0  0  0  0  0  0  0  0  0  0  0  0
    6.0878   -3.3611   -2.3544 H   0  0  0  0  0  0  0  0  0  0  0  0
    2.6323   -1.1272   -1.5453 H   0  0  0  0  0  0  0  0  0  0  0  0
    4.0734   -0.7430   -0.6312 H   0  0  0  0  0  0  0  0  0  0  0  0
    3.8597    0.6099   -2.7511 H   0  0  0  0  0  0  0  0  0  0  0  0
    5.3056   -0.3644   -2.7138 H   0  0  0  0  0  0  0  0  0  0  0  0
    2.6867   -1.0515   -4.1881 H   0  0  0  0  0  0  0  0  0  0  0  0
    4.2055   -0.5850   -4.9412 H   0  0  0  0  0  0  0  0  0  0  0  0
    3.9520   -4.2533   -3.1813 H   0  0  0  0  0  0  0  0  0  0  0  0
    2.5558   -3.2076   -3.0895 H   0  0  0  0  0  0  0  0  0  0  0  0
    2.5577   -3.8518   -0.8852 H   0  0  0  0  0  0  0  0  0  0  0  0
    3.3642   -2.8753    0.3596 H   0  0  0  0  0  0  0  0  0  0  0  0
  1  2  1  0
  1 18  1  0
  1 19  1  0
  1 20  1  0
  2  6  1  0
  2  3  1  0
  3  4  2  0
  3 21  1  0
  4  5  1  0
  5  6  2  0
  6  7  1  0
  7  8  1  0
  7 22  1  0
  7 23  1  0
  8 17  1  0
  8  9  1  0
  9 10  1  0
  9 24  1  0
  9 25  1  0
 11 10  1  6
 10 26  1  0
 10 27  1  0
 11 16  1  0
 11 12  1  0
 11 17  1  0
 12 13  1  0
 12 28  1  0
 12 29  1  0
 13 14  1  0
 13 30  1  0
 13 31  1  0
 14 15  1  0
 14 32  1  0
 14 33  1  0
 15 16  1  0
 16 34  1  0
 16 35  1  0
 17 36  1  0
 17 37  1  0
M  END
>  <i_m_ct_stereo_status>  (344) 
1

>  <s_m_source_file>  (344) 
/var/tmp/pbs.5076255.sched01/tmpmzi298dc/117y2go66iu.sdf

>  <i_m_source_file_index>  (344) 
24

>  <i_lp_mmshare_version>  (344) 
48012

>  <i_f3d_flags>  (344) 
0

>  <s_epik_input>  (344) 
W0NIM11uMVtjSF1ubmMxW0NIMl1OKFtDSDJdMilbQ0gyXVtDSDJdW0NAXTIzW0NIMl1bQ0gyXVtDSDJdT1tDSDJdMw==

>  <s_epik_cmdline>  (344) 
J2VwaWtfcHl0aG9uJywgJy1waHQnLCAnMi4wJywgJy1waCcsICc3LjAnLCAnLXRuJywgJzgnLCAnLW1hJywgJzIwMCcsICctaW1hZScsICc8aW5maWxlLm1hZT4nLCAnLW9tYWUnLCAnPG91dGZpbGUubWFlPic=

>  <r_lp_tautomer_probability>  (344) 
1

>  <r_epik_Ionization_Penalty>  (344) 
0.527453

>  <r_epik_Ionization_Penalty_Charging>  (344) 
0

>  <r_epik_Ionization_Penalty_Neutral>  (344) 
0.527453

>  <r_epik_State_Penalty>  (344) 
0.534753

>  <r_epik_Charging_Adjusted_Penalty>  (344) 
0.534753

>  <i_epik_Tot_Q>  (344) 
0

>  <i_epik_Tot_abs_Q>  (344) 
0

>  <s_lp_Force_Field>  (344) 
OPLS3e

>  <r_lp_Energy>  (344) 
13.5039

>  <b_lp_Chiralities_Consistent>  (344) 
1

>  <s_lp_Variant>  (344) 
104:0-2

>  <s_i_glide_gridfile>  (344) 
pfpi4k_grid

>  <i_i_glide_lignum>  (344) 
24

>  <i_i_glide_rotatable_bonds>  (344) 
2

>  <r_i_docking_score>  (344) 
-4.06986

>  <r_i_glide_ligand_efficiency>  (344) 
-0.239403

>  <r_i_glide_ligand_efficiency_sa>  (344) 
-0.615573

>  <r_i_glide_ligand_efficiency_ln>  (344) 
-1.06173

>  <r_i_glide_gscore>  (344) 
-4.06986

>  <r_i_glide_lipo>  (344) 
-0.444682

>  <r_i_glide_hbond>  (344) 
-0.317893

>  <r_i_glide_metal>  (344) 
-0

>  <r_i_glide_rewards>  (344) 
-1.83878

>  <r_i_glide_evdw>  (344) 
-18.7616

>  <r_i_glide_ecoul>  (344) 
-6.077

>  <r_i_glide_erotb>  (344) 
0.616543

>  <r_i_glide_esite>  (344) 
-0.235415

>  <r_i_glide_emodel>  (344) 
-31.6606

>  <r_i_glide_energy>  (344) 
-24.8386

>  <r_i_glide_einternal>  (344) 
0.566635

>  <r_i_glide_intrahb_reward>  (344) 
-0

>  <i_i_glide_confnum>  (344) 
2

>  <i_i_glide_posenum>  (344) 
17

>  <r_i_glide_eff_state_penalty>  (344) 
0

>  <ligand_id>  (344) 
104

>  <original_smiles>  (344) 
Cn1cnnc1CN1CCC2(CCCOC2)C1

>  <smiles>  (344) 
[H]c1nnc(C([H])([H])N2C([H])([H])C([H])([H])C3(C([H])([H])OC([H])([H])C([H])([H])C3([H])[H])C2([H])[H])n1C([H])([H])[H]

$$$$
104:1:1
     RDKit          3D

 37 39  0  0  1  0  0  0  0  0999 V2000
    2.7025   -9.4137    1.7187 C   0  0  0  0  0  0  0  0  0  0  0  0
    2.0207   -8.1018    1.6946 N   0  0  0  0  0  0  0  0  0  0  0  0
    0.7117   -7.8858    1.6954 C   0  0  0  0  0  0  0  0  0  0  0  0
    0.3919   -6.5900    1.6061 N   0  0  0  0  0  0  0  0  0  0  0  0
    1.5796   -5.9297    1.6002 N   0  0  0  0  0  0  0  0  0  0  0  0
    2.5470   -6.8724    1.6447 C   0  0  0  0  0  0  0  0  0  0  0  0
    4.0454   -6.5744    1.6351 C   0  0  0  0  0  0  0  0  0  0  0  0
    4.4397   -5.2684    1.1399 N   0  0  0  0  0  0  0  0  0  0  0  0
    3.9070   -4.1057    1.8592 C   0  0  0  0  0  0  0  0  0  0  0  0
    4.1086   -2.9649    0.8924 C   0  0  0  0  0  0  0  0  0  0  0  0
    4.2830   -3.5918   -0.5155 C   0  0  1  0  0  0  0  0  0  0  0  0
    3.2147   -3.1215   -1.5281 C   0  0  0  0  0  0  0  0  0  0  0  0
    3.4045   -1.6277   -1.8389 C   0  0  0  0  0  0  0  0  0  0  0  0
    4.8714   -1.3605   -2.2435 C   0  0  0  0  0  0  0  0  0  0  0  0
    5.7860   -1.8353   -1.2725 O   0  0  0  0  0  0  0  0  0  0  0  0
    5.6834   -3.2550   -1.0560 C   0  0  0  0  0  0  0  0  0  0  0  0
    4.1522   -5.1098   -0.2834 C   0  0  0  0  0  0  0  0  0  0  0  0
    1.9635  -10.1972    1.9056 H   0  0  0  0  0  0  0  0  0  0  0  0
    3.4597   -9.4503    2.5114 H   0  0  0  0  0  0  0  0  0  0  0  0
    3.1767   -9.6089    0.7517 H   0  0  0  0  0  0  0  0  0  0  0  0
   -0.0528   -8.7151    1.7083 H   0  0  0  0  0  0  0  0  0  0  0  0
    4.4191   -6.7041    2.6461 H   0  0  0  0  0  0  0  0  0  0  0  0
    4.5342   -7.3555    1.0551 H   0  0  0  0  0  0  0  0  0  0  0  0
    2.8284   -4.1207    1.9796 H   0  0  0  0  0  0  0  0  0  0  0  0
    4.3993   -3.9521    2.8337 H   0  0  0  0  0  0  0  0  0  0  0  0
    3.2109   -2.3568    0.9334 H   0  0  0  0  0  0  0  0  0  0  0  0
    4.9558   -2.3124    1.1713 H   0  0  0  0  0  0  0  0  0  0  0  0
    3.2725   -3.6963   -2.4605 H   0  0  0  0  0  0  0  0  0  0  0  0
    2.2007   -3.2890   -1.1549 H   0  0  0  0  0  0  0  0  0  0  0  0
    2.7158   -1.2982   -2.6124 H   0  0  0  0  0  0  0  0  0  0  0  0
    3.1685   -1.0417   -0.9511 H   0  0  0  0  0  0  0  0  0  0  0  0
    5.0803   -1.8452   -3.1996 H   0  0  0  0  0  0  0  0  0  0  0  0
    5.0228   -0.2871   -2.3744 H   0  0  0  0  0  0  0  0  0  0  0  0
    6.4404   -3.5594   -0.3420 H   0  0  0  0  0  0  0  0  0  0  0  0
    5.8851   -3.7869   -1.9829 H   0  0  0  0  0  0  0  0  0  0  0  0
    4.8006   -5.7078   -0.9278 H   0  0  0  0  0  0  0  0  0  0  0  0
    3.1278   -5.4363   -0.4697 H   0  0  0  0  0  0  0  0  0  0  0  0
  1  2  1  0
  1 18  1  0
  1 19  1  0
  1 20  1  0
  2  6  1  0
  2  3  1  0
  3  4  2  0
  3 21  1  0
  4  5  1  0
  5  6  2  0
  6  7  1  0
  7  8  1  0
  7 22  1  0
  7 23  1  0
  8 17  1  0
  8  9  1  0
  9 10  1  0
  9 24  1  0
  9 25  1  0
 11 10  1  1
 10 26  1  0
 10 27  1  0
 11 16  1  0
 11 12  1  0
 11 17  1  0
 12 13  1  0
 12 28  1  0
 12 29  1  0
 13 14  1  0
 13 30  1  0
 13 31  1  0
 14 15  1  0
 14 32  1  0
 14 33  1  0
 15 16  1  0
 16 34  1  0
 16 35  1  0
 17 36  1  0
 17 37  1  0
M  END
>  <i_m_ct_stereo_status>  (345) 
1

>  <s_m_source_file>  (345) 
/var/tmp/pbs.5076255.sched01/tmpmzi298dc/117y2go66iu.sdf

>  <i_m_source_file_index>  (345) 
24

>  <i_lp_mmshare_version>  (345) 
48012

>  <i_f3d_flags>  (345) 
0

>  <s_epik_input>  (345) 
W0NIM11uMVtjSF1ubmMxW0NIMl1OKFtDSDJdMilbQ0gyXVtDSDJdW0NAXTIzW0NIMl1bQ0gyXVtDSDJdT1tDSDJdMw==

>  <s_epik_cmdline>  (345) 
J2VwaWtfcHl0aG9uJywgJy1waHQnLCAnMi4wJywgJy1waCcsICc3LjAnLCAnLXRuJywgJzgnLCAnLW1hJywgJzIwMCcsICctaW1hZScsICc8aW5maWxlLm1hZT4nLCAnLW9tYWUnLCAnPG91dGZpbGUubWFlPic=

>  <r_lp_tautomer_probability>  (345) 
1

>  <r_epik_Ionization_Penalty>  (345) 
0.527453

>  <r_epik_Ionization_Penalty_Charging>  (345) 
0

>  <r_epik_Ionization_Penalty_Neutral>  (345) 
0.527453

>  <r_epik_State_Penalty>  (345) 
0.534753

>  <r_epik_Charging_Adjusted_Penalty>  (345) 
0.534753

>  <i_epik_Tot_Q>  (345) 
0

>  <i_epik_Tot_abs_Q>  (345) 
0

>  <s_lp_Force_Field>  (345) 
OPLS3e

>  <r_lp_Energy>  (345) 
13.5039

>  <b_lp_Chiralities_Consistent>  (345) 
1

>  <s_lp_Variant>  (345) 
104:0-2

>  <s_i_glide_gridfile>  (345) 
pfpi4k_grid

>  <i_i_glide_lignum>  (345) 
24

>  <i_i_glide_rotatable_bonds>  (345) 
2

>  <r_i_docking_score>  (345) 
-3.50528

>  <r_i_glide_ligand_efficiency>  (345) 
-0.206193

>  <r_i_glide_ligand_efficiency_sa>  (345) 
-0.53018

>  <r_i_glide_ligand_efficiency_ln>  (345) 
-0.914449

>  <r_i_glide_gscore>  (345) 
-3.50528

>  <r_i_glide_lipo>  (345) 
-0.198238

>  <r_i_glide_hbond>  (345) 
-0.0249163

>  <r_i_glide_metal>  (345) 
-0

>  <r_i_glide_rewards>  (345) 
-1.79786

>  <r_i_glide_evdw>  (345) 
-19.0495

>  <r_i_glide_ecoul>  (345) 
-5.96814

>  <r_i_glide_erotb>  (345) 
0.616543

>  <r_i_glide_esite>  (345) 
-0.253106

>  <r_i_glide_emodel>  (345) 
-27.502

>  <r_i_glide_energy>  (345) 
-25.0176

>  <r_i_glide_einternal>  (345) 
6.24791

>  <r_i_glide_intrahb_reward>  (345) 
-0

>  <i_i_glide_confnum>  (345) 
5

>  <i_i_glide_posenum>  (345) 
39

>  <r_i_glide_eff_state_penalty>  (345) 
0

>  <ligand_id>  (345) 
104

>  <original_smiles>  (345) 
Cn1cnnc1CN1CCC2(CCCOC2)C1

>  <smiles>  (345) 
[H]c1nnc(C([H])([H])N2C([H])([H])C([H])([H])C3(C([H])([H])OC([H])([H])C([H])([H])C3([H])[H])C2([H])[H])n1C([H])([H])[H]

$$$$
104:1:2
     RDKit          3D

 37 39  0  0  1  0  0  0  0  0999 V2000
    4.0445   -7.9255    2.2193 C   0  0  0  0  0  0  0  0  0  0  0  0
    3.0892   -7.0340    1.5902 N   0  0  0  0  0  0  0  0  0  0  0  0
    1.8175   -7.2723    1.3258 C   0  0  0  0  0  0  0  0  0  0  0  0
    1.1417   -6.2576    0.7483 N   0  0  0  0  0  0  0  0  0  0  0  0
    2.0913   -5.2662    0.6376 N   0  0  0  0  0  0  0  0  0  0  0  0
    3.2415   -5.7955    1.1232 C   0  0  0  0  0  0  0  0  0  0  0  0
    4.5470   -5.0288    1.1792 C   0  0  0  0  0  0  0  0  0  0  0  0
    5.0562   -4.5547   -0.1034 N   0  0  0  0  0  0  0  0  0  0  0  0
    6.3533   -3.9003   -0.0081 C   0  0  0  0  0  0  0  0  0  0  0  0
    6.4978   -3.1736   -1.3478 C   0  0  0  0  0  0  0  0  0  0  0  0
    5.0622   -2.9125   -1.8263 C   0  0  1  0  0  0  0  0  0  0  0  0
    4.7471   -1.4116   -1.9991 C   0  0  0  0  0  0  0  0  0  0  0  0
    3.3614   -1.2046   -2.6086 C   0  0  0  0  0  0  0  0  0  0  0  0
    3.1755   -2.0449   -3.8834 C   0  0  0  0  0  0  0  0  0  0  0  0
    3.4426   -3.4110   -3.6223 O   0  0  0  0  0  0  0  0  0  0  0  0
    4.7752   -3.6563   -3.1552 C   0  0  0  0  0  0  0  0  0  0  0  0
    4.2176   -3.5182   -0.6971 C   0  0  0  0  0  0  0  0  0  0  0  0
    3.5322   -8.8009    2.6088 H   0  0  0  0  0  0  0  0  0  0  0  0
    4.5426   -7.4280    3.0508 H   0  0  0  0  0  0  0  0  0  0  0  0
    4.7923   -8.2490    1.4994 H   0  0  0  0  0  0  0  0  0  0  0  0
    1.3109   -8.2211    1.5226 H   0  0  0  0  0  0  0  0  0  0  0  0
    4.4053   -4.1935    1.8714 H   0  0  0  0  0  0  0  0  0  0  0  0
    5.3024   -5.6760    1.6226 H   0  0  0  0  0  0  0  0  0  0  0  0
    6.3542   -3.1729    0.8062 H   0  0  0  0  0  0  0  0  0  0  0  0
    7.1584   -4.6131    0.1675 H   0  0  0  0  0  0  0  0  0  0  0  0
    7.0859   -2.2640   -1.2421 H   0  0  0  0  0  0  0  0  0  0  0  0
    7.0315   -3.7997   -2.0634 H   0  0  0  0  0  0  0  0  0  0  0  0
    4.8360   -0.8792   -1.0520 H   0  0  0  0  0  0  0  0  0  0  0  0
    5.4567   -0.9614   -2.6757 H   0  0  0  0  0  0  0  0  0  0  0  0
    2.6088   -1.4834   -1.8748 H   0  0  0  0  0  0  0  0  0  0  0  0
    3.2055   -0.1469   -2.8320 H   0  0  0  0  0  0  0  0  0  0  0  0
    2.1552   -1.9504   -4.2493 H   0  0  0  0  0  0  0  0  0  0  0  0
    3.8355   -1.6950   -4.6741 H   0  0  0  0  0  0  0  0  0  0  0  0
    5.4841   -3.3488   -3.9149 H   0  0  0  0  0  0  0  0  0  0  0  0
    4.9046   -4.7315   -3.0480 H   0  0  0  0  0  0  0  0  0  0  0  0
    3.2777   -3.9064   -1.0978 H   0  0  0  0  0  0  0  0  0  0  0  0
    3.9783   -2.7658    0.0631 H   0  0  0  0  0  0  0  0  0  0  0  0
  1  2  1  0
  1 18  1  0
  1 19  1  0
  1 20  1  0
  2  6  1  0
  2  3  1  0
  3  4  2  0
  3 21  1  0
  4  5  1  0
  5  6  2  0
  6  7  1  0
  7  8  1  0
  7 22  1  0
  7 23  1  0
  8 17  1  0
  8  9  1  0
  9 10  1  0
  9 24  1  0
  9 25  1  0
 11 10  1  1
 10 26  1  0
 10 27  1  0
 11 16  1  0
 11 12  1  0
 11 17  1  0
 12 13  1  0
 12 28  1  0
 12 29  1  0
 13 14  1  0
 13 30  1  0
 13 31  1  0
 14 15  1  0
 14 32  1  0
 14 33  1  0
 15 16  1  0
 16 34  1  0
 16 35  1  0
 17 36  1  0
 17 37  1  0
M  END
>  <i_m_ct_stereo_status>  (346) 
1

>  <s_m_source_file>  (346) 
/var/tmp/pbs.5076255.sched01/tmpmzi298dc/117y2go66iu.sdf

>  <i_m_source_file_index>  (346) 
24

>  <i_lp_mmshare_version>  (346) 
48012

>  <i_f3d_flags>  (346) 
0

>  <s_epik_input>  (346) 
W0NIM11uMVtjSF1ubmMxW0NIMl1OKFtDSDJdMilbQ0gyXVtDSDJdW0NAXTIzW0NIMl1bQ0gyXVtDSDJdT1tDSDJdMw==

>  <s_epik_cmdline>  (346) 
J2VwaWtfcHl0aG9uJywgJy1waHQnLCAnMi4wJywgJy1waCcsICc3LjAnLCAnLXRuJywgJzgnLCAnLW1hJywgJzIwMCcsICctaW1hZScsICc8aW5maWxlLm1hZT4nLCAnLW9tYWUnLCAnPG91dGZpbGUubWFlPic=

>  <r_lp_tautomer_probability>  (346) 
1

>  <r_epik_Ionization_Penalty>  (346) 
0.527453

>  <r_epik_Ionization_Penalty_Charging>  (346) 
0

>  <r_epik_Ionization_Penalty_Neutral>  (346) 
0.527453

>  <r_epik_State_Penalty>  (346) 
0.534753

>  <r_epik_Charging_Adjusted_Penalty>  (346) 
0.534753

>  <i_epik_Tot_Q>  (346) 
0

>  <i_epik_Tot_abs_Q>  (346) 
0

>  <s_lp_Force_Field>  (346) 
OPLS3e

>  <r_lp_Energy>  (346) 
13.5039

>  <b_lp_Chiralities_Consistent>  (346) 
1

>  <s_lp_Variant>  (346) 
104:0-2

>  <s_i_glide_gridfile>  (346) 
pfpi4k_grid

>  <i_i_glide_lignum>  (346) 
24

>  <i_i_glide_rotatable_bonds>  (346) 
2

>  <r_i_docking_score>  (346) 
-3.19708

>  <r_i_glide_ligand_efficiency>  (346) 
-0.188063

>  <r_i_glide_ligand_efficiency_sa>  (346) 
-0.483564

>  <r_i_glide_ligand_efficiency_ln>  (346) 
-0.834047

>  <r_i_glide_gscore>  (346) 
-3.19708

>  <r_i_glide_lipo>  (346) 
-0.477104

>  <r_i_glide_hbond>  (346) 
0

>  <r_i_glide_metal>  (346) 
-0

>  <r_i_glide_rewards>  (346) 
-1.87451

>  <r_i_glide_evdw>  (346) 
-20.4056

>  <r_i_glide_ecoul>  (346) 
-1.69954

>  <r_i_glide_erotb>  (346) 
0.616543

>  <r_i_glide_esite>  (346) 
-0.1868

>  <r_i_glide_emodel>  (346) 
-27.7137

>  <r_i_glide_energy>  (346) 
-22.1051

>  <r_i_glide_einternal>  (346) 
0.208523

>  <r_i_glide_intrahb_reward>  (346) 
-0

>  <i_i_glide_confnum>  (346) 
3

>  <i_i_glide_posenum>  (346) 
21

>  <r_i_glide_eff_state_penalty>  (346) 
0

>  <ligand_id>  (346) 
104

>  <original_smiles>  (346) 
Cn1cnnc1CN1CCC2(CCCOC2)C1

>  <smiles>  (346) 
[H]c1nnc(C([H])([H])N2C([H])([H])C([H])([H])C3(C([H])([H])OC([H])([H])C([H])([H])C3([H])[H])C2([H])[H])n1C([H])([H])[H]

$$$$
106:0:0
     RDKit          3D

 33 36  0  0  1  0  0  0  0  0999 V2000
    7.3359   -6.2374    1.1032 C   0  0  0  0  0  0  0  0  0  0  0  0
    6.2888   -5.4958    0.4723 O   0  0  0  0  0  0  0  0  0  0  0  0
    4.9966   -5.8159    0.7657 C   0  0  0  0  0  0  0  0  0  0  0  0
    4.7297   -6.8820    1.4902 N   0  0  0  0  0  0  0  0  0  0  0  0
    3.0708   -6.9190    1.6791 S   0  0  0  0  0  0  0  0  0  0  0  0
    2.6827   -5.5253    0.8394 N   0  0  0  0  0  0  0  0  0  0  0  0
    3.8256   -5.0747    0.3745 C   0  0  0  0  0  0  0  0  0  0  0  0
    3.9384   -3.8604   -0.4387 C   0  0  0  0  0  0  0  0  0  0  0  0
    3.3377   -2.6846   -0.2133 C   0  0  0  0  0  0  0  0  0  0  0  0
    3.6633   -1.7720   -1.3813 C   0  0  1  0  0  0  0  0  0  0  0  0
    5.1632   -1.4436   -1.3055 C   0  0  1  0  0  0  0  0  0  0  0  0
    6.1719   -2.0325   -0.3408 C   0  0  0  0  0  0  0  0  0  0  0  0
    5.8207   -2.7975   -1.6006 C   0  0  1  0  0  0  0  0  0  0  0  0
    4.6117   -3.7251   -1.7994 C   0  0  2  0  0  0  0  0  0  0  0  0
    3.5966   -2.8015   -2.5363 C   0  0  0  0  0  0  0  0  0  0  0  0
    2.1874   -3.4208   -2.7644 C   0  0  0  0  0  0  0  0  0  0  0  0
    4.0463   -2.2742   -3.9179 C   0  0  0  0  0  0  0  0  0  0  0  0
    8.2956   -5.8696    0.7465 H   0  0  0  0  0  0  0  0  0  0  0  0
    7.3044   -7.3030    0.8807 H   0  0  0  0  0  0  0  0  0  0  0  0
    7.3224   -6.1095    2.1843 H   0  0  0  0  0  0  0  0  0  0  0  0
    2.7340   -2.3950    0.6332 H   0  0  0  0  0  0  0  0  0  0  0  0
    3.0171   -0.9021   -1.4866 H   0  0  0  0  0  0  0  0  0  0  0  0
    5.4831   -0.5975   -1.9108 H   0  0  0  0  0  0  0  0  0  0  0  0
    7.1558   -1.5743   -0.3077 H   0  0  0  0  0  0  0  0  0  0  0  0
    5.8283   -2.4090    0.6244 H   0  0  0  0  0  0  0  0  0  0  0  0
    6.5634   -2.8166   -2.3936 H   0  0  0  0  0  0  0  0  0  0  0  0
    4.8416   -4.6637   -2.3045 H   0  0  0  0  0  0  0  0  0  0  0  0
    2.2215   -4.2119   -3.5160 H   0  0  0  0  0  0  0  0  0  0  0  0
    1.4901   -2.6715   -3.1423 H   0  0  0  0  0  0  0  0  0  0  0  0
    1.7285   -3.8493   -1.8732 H   0  0  0  0  0  0  0  0  0  0  0  0
    4.0930   -3.0963   -4.6317 H   0  0  0  0  0  0  0  0  0  0  0  0
    5.0158   -1.7859   -3.9173 H   0  0  0  0  0  0  0  0  0  0  0  0
    3.3325   -1.5462   -4.3065 H   0  0  0  0  0  0  0  0  0  0  0  0
  1  2  1  0
  1 18  1  0
  1 19  1  0
  1 20  1  0
  2  3  1  0
  3  7  1  0
  3  4  2  0
  4  5  1  0
  5  6  1  0
  6  7  2  0
  7  8  1  0
  8 14  1  0
  8  9  2  0
  9 10  1  0
  9 21  1  0
 10 15  1  0
 10 11  1  0
 10 22  1  6
 11 13  1  0
 11 12  1  0
 11 23  1  6
 12 13  1  0
 12 24  1  0
 12 25  1  0
 13 14  1  0
 13 26  1  6
 14 15  1  0
 14 27  1  6
 15 16  1  0
 15 17  1  0
 16 28  1  0
 16 29  1  0
 16 30  1  0
 17 31  1  0
 17 32  1  0
 17 33  1  0
M  END
>  <i_m_ct_stereo_status>  (347) 
1

>  <s_m_source_file>  (347) 
/var/tmp/pbs.5076255.sched01/tmpmzi298dc/117y2go66iu.sdf

>  <i_m_source_file_index>  (347) 
26

>  <i_lp_mmshare_version>  (347) 
48012

>  <i_f3d_flags>  (347) 
0

>  <s_epik_input>  (347) 
W0NIM11PYzFuc25jMUMoPVtDSF0yKVtDQEBIXShDMyhbQ0gzXSlbQ0gzXSlbQ0BIXShbQ0gyXTQpW0NASF00W0NASF0yMw==

>  <s_epik_cmdline>  (347) 
J2VwaWtfcHl0aG9uJywgJy1waHQnLCAnMi4wJywgJy1waCcsICc3LjAnLCAnLXRuJywgJzgnLCAnLW1hJywgJzIwMCcsICctaW1hZScsICc8aW5maWxlLm1hZT4nLCAnLW9tYWUnLCAnPG91dGZpbGUubWFlPic=

>  <r_lp_tautomer_probability>  (347) 
1

>  <r_epik_Ionization_Penalty>  (347) 
7.47922e-12

>  <r_epik_Ionization_Penalty_Charging>  (347) 
0

>  <r_epik_Ionization_Penalty_Neutral>  (347) 
7.47922e-12

>  <r_epik_State_Penalty>  (347) 
-0

>  <r_epik_Charging_Adjusted_Penalty>  (347) 
0

>  <i_epik_Tot_Q>  (347) 
0

>  <i_epik_Tot_abs_Q>  (347) 
0

>  <s_lp_Force_Field>  (347) 
OPLS3e

>  <r_lp_Energy>  (347) 
43.3942

>  <b_lp_Chiralities_Consistent>  (347) 
1

>  <s_lp_Variant>  (347) 
106:0-1

>  <s_i_glide_gridfile>  (347) 
pfpi4k_grid

>  <i_i_glide_lignum>  (347) 
26

>  <i_i_glide_rotatable_bonds>  (347) 
2

>  <r_i_docking_score>  (347) 
-3.12783

>  <r_i_glide_ligand_efficiency>  (347) 
-0.18399

>  <r_i_glide_ligand_efficiency_sa>  (347) 
-0.473091

>  <r_i_glide_ligand_efficiency_ln>  (347) 
-0.815982

>  <r_i_glide_gscore>  (347) 
-3.12783

>  <r_i_glide_lipo>  (347) 
-0.471025

>  <r_i_glide_hbond>  (347) 
0

>  <r_i_glide_metal>  (347) 
-0

>  <r_i_glide_rewards>  (347) 
-1.71583

>  <r_i_glide_evdw>  (347) 
-22.6194

>  <r_i_glide_ecoul>  (347) 
-0.621411

>  <r_i_glide_erotb>  (347) 
0.283205

>  <r_i_glide_esite>  (347) 
0

>  <r_i_glide_emodel>  (347) 
-26.0588

>  <r_i_glide_energy>  (347) 
-23.2408

>  <r_i_glide_einternal>  (347) 
3.16705

>  <r_i_glide_intrahb_reward>  (347) 
-0

>  <i_i_glide_confnum>  (347) 
4

>  <i_i_glide_posenum>  (347) 
14

>  <r_i_glide_eff_state_penalty>  (347) 
0

>  <ligand_id>  (347) 
106

>  <original_smiles>  (347) 
COc1nsnc1C1=CC2C3CC3C1C2(C)C

>  <smiles>  (347) 
[H]C1=C(c2nsnc2OC([H])([H])[H])C2([H])C3([H])C([H])([H])C3([H])C1([H])C2(C([H])([H])[H])C([H])([H])[H]

$$$$
106:0:1
     RDKit          3D

 33 36  0  0  1  0  0  0  0  0999 V2000
    4.8966    0.1261    3.9736 C   0  0  0  0  0  0  0  0  0  0  0  0
    4.6658   -0.4182    2.6720 O   0  0  0  0  0  0  0  0  0  0  0  0
    3.7677   -1.4364    2.5528 C   0  0  0  0  0  0  0  0  0  0  0  0
    3.0264   -1.7720    3.5880 N   0  0  0  0  0  0  0  0  0  0  0  0
    2.0717   -3.0466    3.0993 S   0  0  0  0  0  0  0  0  0  0  0  0
    2.6182   -3.1871    1.5297 N   0  0  0  0  0  0  0  0  0  0  0  0
    3.5235   -2.2456    1.3823 C   0  0  0  0  0  0  0  0  0  0  0  0
    4.2314   -2.0562    0.1081 C   0  0  0  0  0  0  0  0  0  0  0  0
    4.9883   -1.0277   -0.3020 C   0  0  0  0  0  0  0  0  0  0  0  0
    5.5013   -1.3649   -1.6919 C   0  0  1  0  0  0  0  0  0  0  0  0
    6.5531   -2.4715   -1.5273 C   0  0  1  0  0  0  0  0  0  0  0  0
    6.9000   -3.2048   -0.2494 C   0  0  0  0  0  0  0  0  0  0  0  0
    5.7021   -3.6590   -1.0564 C   0  0  1  0  0  0  0  0  0  0  0  0
    4.2814   -3.0736   -1.0212 C   0  0  2  0  0  0  0  0  0  0  0  0
    4.2865   -2.1339   -2.2524 C   0  0  0  0  0  0  0  0  0  0  0  0
    3.0121   -1.2673   -2.4086 C   0  0  0  0  0  0  0  0  0  0  0  0
    4.4922   -2.8257   -3.6192 C   0  0  0  0  0  0  0  0  0  0  0  0
    5.6267    0.9263    3.8968 H   0  0  0  0  0  0  0  0  0  0  0  0
    5.3018   -0.6194    4.6587 H   0  0  0  0  0  0  0  0  0  0  0  0
    3.9961    0.5533    4.4151 H   0  0  0  0  0  0  0  0  0  0  0  0
    5.2279   -0.1175    0.2251 H   0  0  0  0  0  0  0  0  0  0  0  0
    5.8089   -0.5122   -2.2952 H   0  0  0  0  0  0  0  0  0  0  0  0
    7.1936   -2.6533   -2.3870 H   0  0  0  0  0  0  0  0  0  0  0  0
    7.7754   -3.8514   -0.2829 H   0  0  0  0  0  0  0  0  0  0  0  0
    6.7394   -2.7190    0.7151 H   0  0  0  0  0  0  0  0  0  0  0  0
    5.7982   -4.5860   -1.6135 H   0  0  0  0  0  0  0  0  0  0  0  0
    3.4879   -3.8227   -1.0205 H   0  0  0  0  0  0  0  0  0  0  0  0
    2.1597   -1.8998   -2.6614 H   0  0  0  0  0  0  0  0  0  0  0  0
    3.1160   -0.5207   -3.1977 H   0  0  0  0  0  0  0  0  0  0  0  0
    2.7346   -0.7196   -1.5109 H   0  0  0  0  0  0  0  0  0  0  0  0
    3.6263   -3.4397   -3.8675 H   0  0  0  0  0  0  0  0  0  0  0  0
    5.3659   -3.4693   -3.6789 H   0  0  0  0  0  0  0  0  0  0  0  0
    4.5854   -2.0718   -4.3975 H   0  0  0  0  0  0  0  0  0  0  0  0
  1  2  1  0
  1 18  1  0
  1 19  1  0
  1 20  1  0
  2  3  1  0
  3  7  1  0
  3  4  2  0
  4  5  1  0
  5  6  1  0
  6  7  2  0
  7  8  1  0
  8 14  1  0
  8  9  2  0
  9 10  1  0
  9 21  1  0
 10 15  1  0
 10 11  1  0
 10 22  1  6
 11 13  1  0
 11 12  1  0
 11 23  1  6
 12 13  1  0
 12 24  1  0
 12 25  1  0
 13 14  1  0
 13 26  1  6
 14 15  1  0
 14 27  1  6
 15 16  1  0
 15 17  1  0
 16 28  1  0
 16 29  1  0
 16 30  1  0
 17 31  1  0
 17 32  1  0
 17 33  1  0
M  END
>  <i_m_ct_stereo_status>  (348) 
1

>  <s_m_source_file>  (348) 
/var/tmp/pbs.5076255.sched01/tmpmzi298dc/117y2go66iu.sdf

>  <i_m_source_file_index>  (348) 
26

>  <i_lp_mmshare_version>  (348) 
48012

>  <i_f3d_flags>  (348) 
0

>  <s_epik_input>  (348) 
W0NIM11PYzFuc25jMUMoPVtDSF0yKVtDQEBIXShDMyhbQ0gzXSlbQ0gzXSlbQ0BIXShbQ0gyXTQpW0NASF00W0NASF0yMw==

>  <s_epik_cmdline>  (348) 
J2VwaWtfcHl0aG9uJywgJy1waHQnLCAnMi4wJywgJy1waCcsICc3LjAnLCAnLXRuJywgJzgnLCAnLW1hJywgJzIwMCcsICctaW1hZScsICc8aW5maWxlLm1hZT4nLCAnLW9tYWUnLCAnPG91dGZpbGUubWFlPic=

>  <r_lp_tautomer_probability>  (348) 
1

>  <r_epik_Ionization_Penalty>  (348) 
7.47922e-12

>  <r_epik_Ionization_Penalty_Charging>  (348) 
0

>  <r_epik_Ionization_Penalty_Neutral>  (348) 
7.47922e-12

>  <r_epik_State_Penalty>  (348) 
-0

>  <r_epik_Charging_Adjusted_Penalty>  (348) 
0

>  <i_epik_Tot_Q>  (348) 
0

>  <i_epik_Tot_abs_Q>  (348) 
0

>  <s_lp_Force_Field>  (348) 
OPLS3e

>  <r_lp_Energy>  (348) 
43.3942

>  <b_lp_Chiralities_Consistent>  (348) 
1

>  <s_lp_Variant>  (348) 
106:0-1

>  <s_i_glide_gridfile>  (348) 
pfpi4k_grid

>  <i_i_glide_lignum>  (348) 
26

>  <i_i_glide_rotatable_bonds>  (348) 
2

>  <r_i_docking_score>  (348) 
-2.86774

>  <r_i_glide_ligand_efficiency>  (348) 
-0.16869

>  <r_i_glide_ligand_efficiency_sa>  (348) 
-0.43375

>  <r_i_glide_ligand_efficiency_ln>  (348) 
-0.748129

>  <r_i_glide_gscore>  (348) 
-2.86774

>  <r_i_glide_lipo>  (348) 
-0.431194

>  <r_i_glide_hbond>  (348) 
0

>  <r_i_glide_metal>  (348) 
-0

>  <r_i_glide_rewards>  (348) 
-1.71583

>  <r_i_glide_evdw>  (348) 
-18.6346

>  <r_i_glide_ecoul>  (348) 
-0.481248

>  <r_i_glide_erotb>  (348) 
0.283205

>  <r_i_glide_esite>  (348) 
0

>  <r_i_glide_emodel>  (348) 
-23.0148

>  <r_i_glide_energy>  (348) 
-19.1159

>  <r_i_glide_einternal>  (348) 
0.358293

>  <r_i_glide_intrahb_reward>  (348) 
-0

>  <i_i_glide_confnum>  (348) 
3

>  <i_i_glide_posenum>  (348) 
7

>  <r_i_glide_eff_state_penalty>  (348) 
0

>  <ligand_id>  (348) 
106

>  <original_smiles>  (348) 
COc1nsnc1C1=CC2C3CC3C1C2(C)C

>  <smiles>  (348) 
[H]C1=C(c2nsnc2OC([H])([H])[H])C2([H])C3([H])C([H])([H])C3([H])C1([H])C2(C([H])([H])[H])C([H])([H])[H]

$$$$
106:0:2
     RDKit          3D

 33 36  0  0  1  0  0  0  0  0999 V2000
    3.2915    0.8197    2.9515 C   0  0  0  0  0  0  0  0  0  0  0  0
    3.9912   -0.0556    2.0610 O   0  0  0  0  0  0  0  0  0  0  0  0
    3.9542   -1.3882    2.3292 C   0  0  0  0  0  0  0  0  0  0  0  0
    3.6520   -1.8047    3.5444 N   0  0  0  0  0  0  0  0  0  0  0  0
    3.7225   -3.4655    3.5058 S   0  0  0  0  0  0  0  0  0  0  0  0
    4.1387   -3.6720    1.9041 N   0  0  0  0  0  0  0  0  0  0  0  0
    4.2240   -2.4609    1.4026 C   0  0  0  0  0  0  0  0  0  0  0  0
    4.6073   -2.2370    0.0067 C   0  0  0  0  0  0  0  0  0  0  0  0
    5.1429   -1.1490   -0.5604 C   0  0  0  0  0  0  0  0  0  0  0  0
    5.3275   -1.4599   -2.0362 C   0  0  1  0  0  0  0  0  0  0  0  0
    6.4420   -2.5143   -2.1367 C   0  0  1  0  0  0  0  0  0  0  0  0
    7.1296   -3.2410   -1.0050 C   0  0  0  0  0  0  0  0  0  0  0  0
    5.7910   -3.7501   -1.5083 C   0  0  1  0  0  0  0  0  0  0  0  0
    4.4058   -3.2403   -1.1149 C   0  0  2  0  0  0  0  0  0  0  0  0
    4.0695   -2.3132   -2.3058 C   0  0  0  0  0  0  0  0  0  0  0  0
    2.7590   -1.5380   -2.1567 C   0  0  0  0  0  0  0  0  0  0  0  0
    3.9607   -2.9850   -3.6954 C   0  0  0  0  0  0  0  0  0  0  0  0
    3.3873    1.8384    2.5913 H   0  0  0  0  0  0  0  0  0  0  0  0
    3.6907    0.7993    3.9662 H   0  0  0  0  0  0  0  0  0  0  0  0
    2.2274    0.5863    2.9878 H   0  0  0  0  0  0  0  0  0  0  0  0
    5.4527   -0.2248   -0.0935 H   0  0  0  0  0  0  0  0  0  0  0  0
    5.4210   -0.5983   -2.7019 H   0  0  0  0  0  0  0  0  0  0  0  0
    6.8488   -2.6740   -3.1260 H   0  0  0  0  0  0  0  0  0  0  0  0
    8.0009   -3.8312   -1.2850 H   0  0  0  0  0  0  0  0  0  0  0  0
    7.2030   -2.7634   -0.0298 H   0  0  0  0  0  0  0  0  0  0  0  0
    5.7700   -4.6290   -2.1410 H   0  0  0  0  0  0  0  0  0  0  0  0
    3.6749   -4.0225   -0.9187 H   0  0  0  0  0  0  0  0  0  0  0  0
    1.9279   -2.2457   -2.2235 H   0  0  0  0  0  0  0  0  0  0  0  0
    2.6318   -0.7698   -2.9205 H   0  0  0  0  0  0  0  0  0  0  0  0
    2.6945   -1.0135   -1.2074 H   0  0  0  0  0  0  0  0  0  0  0  0
    3.0912   -3.6434   -3.7250 H   0  0  0  0  0  0  0  0  0  0  0  0
    4.8231   -3.5800   -3.9823 H   0  0  0  0  0  0  0  0  0  0  0  0
    3.8041   -2.2288   -4.4651 H   0  0  0  0  0  0  0  0  0  0  0  0
  1  2  1  0
  1 18  1  0
  1 19  1  0
  1 20  1  0
  2  3  1  0
  3  7  1  0
  3  4  2  0
  4  5  1  0
  5  6  1  0
  6  7  2  0
  7  8  1  0
  8 14  1  0
  8  9  2  0
  9 10  1  0
  9 21  1  0
 10 15  1  0
 10 11  1  0
 10 22  1  6
 11 13  1  0
 11 12  1  0
 11 23  1  6
 12 13  1  0
 12 24  1  0
 12 25  1  0
 13 14  1  0
 13 26  1  6
 14 15  1  0
 14 27  1  1
 15 16  1  0
 15 17  1  0
 16 28  1  0
 16 29  1  0
 16 30  1  0
 17 31  1  0
 17 32  1  0
 17 33  1  0
M  END
>  <i_m_ct_stereo_status>  (349) 
1

>  <s_m_source_file>  (349) 
/var/tmp/pbs.5076255.sched01/tmpmzi298dc/117y2go66iu.sdf

>  <i_m_source_file_index>  (349) 
26

>  <i_lp_mmshare_version>  (349) 
48012

>  <i_f3d_flags>  (349) 
0

>  <s_epik_input>  (349) 
W0NIM11PYzFuc25jMUMoPVtDSF0yKVtDQEBIXShDMyhbQ0gzXSlbQ0gzXSlbQ0BIXShbQ0gyXTQpW0NASF00W0NASF0yMw==

>  <s_epik_cmdline>  (349) 
J2VwaWtfcHl0aG9uJywgJy1waHQnLCAnMi4wJywgJy1waCcsICc3LjAnLCAnLXRuJywgJzgnLCAnLW1hJywgJzIwMCcsICctaW1hZScsICc8aW5maWxlLm1hZT4nLCAnLW9tYWUnLCAnPG91dGZpbGUubWFlPic=

>  <r_lp_tautomer_probability>  (349) 
1

>  <r_epik_Ionization_Penalty>  (349) 
7.47922e-12

>  <r_epik_Ionization_Penalty_Charging>  (349) 
0

>  <r_epik_Ionization_Penalty_Neutral>  (349) 
7.47922e-12

>  <r_epik_State_Penalty>  (349) 
-0

>  <r_epik_Charging_Adjusted_Penalty>  (349) 
0

>  <i_epik_Tot_Q>  (349) 
0

>  <i_epik_Tot_abs_Q>  (349) 
0

>  <s_lp_Force_Field>  (349) 
OPLS3e

>  <r_lp_Energy>  (349) 
43.3942

>  <b_lp_Chiralities_Consistent>  (349) 
1

>  <s_lp_Variant>  (349) 
106:0-1

>  <s_i_glide_gridfile>  (349) 
pfpi4k_grid

>  <i_i_glide_lignum>  (349) 
26

>  <i_i_glide_rotatable_bonds>  (349) 
2

>  <r_i_docking_score>  (349) 
-2.75818

>  <r_i_glide_ligand_efficiency>  (349) 
-0.162246

>  <r_i_glide_ligand_efficiency_sa>  (349) 
-0.417179

>  <r_i_glide_ligand_efficiency_ln>  (349) 
-0.719546

>  <r_i_glide_gscore>  (349) 
-2.75818

>  <r_i_glide_lipo>  (349) 
-0.425414

>  <r_i_glide_hbond>  (349) 
0

>  <r_i_glide_metal>  (349) 
-0

>  <r_i_glide_rewards>  (349) 
-1.71583

>  <r_i_glide_evdw>  (349) 
-14.485

>  <r_i_glide_ecoul>  (349) 
-1.17256

>  <r_i_glide_erotb>  (349) 
0.283205

>  <r_i_glide_esite>  (349) 
0

>  <r_i_glide_emodel>  (349) 
-19.0237

>  <r_i_glide_energy>  (349) 
-15.6576

>  <r_i_glide_einternal>  (349) 
0.979409

>  <r_i_glide_intrahb_reward>  (349) 
-0

>  <i_i_glide_confnum>  (349) 
1

>  <i_i_glide_posenum>  (349) 
12

>  <r_i_glide_eff_state_penalty>  (349) 
0

>  <ligand_id>  (349) 
106

>  <original_smiles>  (349) 
COc1nsnc1C1=CC2C3CC3C1C2(C)C

>  <smiles>  (349) 
[H]C1=C(c2nsnc2OC([H])([H])[H])C2([H])C3([H])C([H])([H])C3([H])C1([H])C2(C([H])([H])[H])C([H])([H])[H]

$$$$
107:0:0
     RDKit          3D

 25 27  0  0  1  0  0  0  0  0999 V2000
    2.2081  -10.4165    2.8833 C   0  0  0  0  0  0  0  0  0  0  0  0
    0.6870  -10.2729    3.0136 C   0  0  0  0  0  0  0  0  0  0  0  0
    0.3106   -8.8930    3.2522 N   0  0  0  0  0  0  0  0  0  0  0  0
   -0.0497   -7.9778    2.3301 C   0  0  0  0  0  0  0  0  0  0  0  0
   -0.3397   -6.7527    2.7659 N   0  0  0  0  0  0  0  0  0  0  0  0
   -0.1304   -6.8961    4.1300 C   0  0  0  0  0  0  0  0  0  0  0  0
   -0.2501   -5.9500    5.1734 C   0  0  0  0  0  0  0  0  0  0  0  0
    0.0092   -6.2898    6.5272 C   0  0  0  0  0  0  0  0  0  0  0  0
   -0.1496   -5.2838    7.6086 C   0  0  0  0  0  0  0  0  0  0  0  0
   -0.6361   -4.0510    7.3947 N   0  0  0  0  0  0  0  0  0  0  0  0
   -0.5860   -3.4997    8.6158 N   0  0  0  0  0  0  0  0  0  0  0  0
   -0.1122   -4.3886    9.5018 N   0  0  0  0  0  0  0  0  0  0  0  0
    0.1666   -5.5449    8.8836 N   0  0  0  0  0  0  0  0  0  0  0  0
    0.4025   -7.6224    6.8151 C   0  0  0  0  0  0  0  0  0  0  0  0
    0.5284   -8.5865    5.7971 C   0  0  0  0  0  0  0  0  0  0  0  0
    0.2674   -8.2198    4.4679 C   0  0  0  0  0  0  0  0  0  0  0  0
    2.4945  -11.4523    2.6969 H   0  0  0  0  0  0  0  0  0  0  0  0
    2.7135  -10.0918    3.7945 H   0  0  0  0  0  0  0  0  0  0  0  0
    2.5905   -9.8139    2.0578 H   0  0  0  0  0  0  0  0  0  0  0  0
    0.1957  -10.6240    2.1052 H   0  0  0  0  0  0  0  0  0  0  0  0
    0.3138  -10.8868    3.8336 H   0  0  0  0  0  0  0  0  0  0  0  0
   -0.0914   -8.2310    1.2793 H   0  0  0  0  0  0  0  0  0  0  0  0
   -0.5549   -4.9458    4.9252 H   0  0  0  0  0  0  0  0  0  0  0  0
    0.5957   -7.9209    7.8390 H   0  0  0  0  0  0  0  0  0  0  0  0
    0.8215   -9.5984    6.0355 H   0  0  0  0  0  0  0  0  0  0  0  0
  1  2  1  0
  1 17  1  0
  1 18  1  0
  1 19  1  0
  2  3  1  0
  2 20  1  0
  2 21  1  0
  3 16  1  0
  3  4  1  0
  4  5  2  0
  4 22  1  0
  5  6  1  0
  6 16  2  0
  6  7  1  0
  7  8  2  0
  7 23  1  0
  8 14  1  0
  8  9  1  0
  9 13  2  0
  9 10  1  0
 10 11  1  0
 11 12  2  0
 12 13  1  0
 14 15  2  0
 14 24  1  0
 15 16  1  0
 15 25  1  0
M  CHG  1  10  -1
M  END
>  <i_m_ct_stereo_status>  (350) 
1

>  <s_m_source_file>  (350) 
/var/tmp/pbs.5076255.sched01/tmpmzi298dc/117y2go66iu.sdf

>  <i_m_source_file_index>  (350) 
27

>  <i_lp_mmshare_version>  (350) 
48012

>  <i_f3d_flags>  (350) 
0

>  <s_epik_input>  (350) 
W0NIM11bQ0gyXW4oW2NIXW4xKWMoYzEyKVtjSF1bY0hdYyhbY0hdMiktYzNubltuSF1uMw==

>  <s_epik_cmdline>  (350) 
J2VwaWtfcHl0aG9uJywgJy1waHQnLCAnMi4wJywgJy1waCcsICc3LjAnLCAnLXRuJywgJzgnLCAnLW1hJywgJzIwMCcsICctaW1hZScsICc8aW5maWxlLm1hZT4nLCAnLW9tYWUnLCAnPG91dGZpbGUubWFlPic=

>  <r_epik_Ionization_Penalty>  (350) 
0.0697959

>  <r_epik_Ionization_Penalty_Charging>  (350) 
0.000927567

>  <r_epik_Ionization_Penalty_Neutral>  (350) 
0.0688683

>  <r_epik_State_Penalty>  (350) 
0.0602883

>  <r_epik_Charging_Adjusted_Penalty>  (350) 
0.0612159

>  <i_epik_Tot_Q>  (350) 
-1

>  <i_epik_Tot_abs_Q>  (350) 
1

>  <s_lp_Force_Field>  (350) 
OPLS3e

>  <r_lp_Energy>  (350) 
16.5255

>  <b_lp_Chiralities_Consistent>  (350) 
1

>  <s_lp_Variant>  (350) 
107:0-1

>  <s_i_glide_gridfile>  (350) 
pfpi4k_grid

>  <i_i_glide_lignum>  (350) 
27

>  <i_i_glide_rotatable_bonds>  (350) 
2

>  <r_i_docking_score>  (350) 
-3.91383

>  <r_i_glide_ligand_efficiency>  (350) 
-0.244614

>  <r_i_glide_ligand_efficiency_sa>  (350) 
-0.616389

>  <r_i_glide_ligand_efficiency_ln>  (350) 
-1.03744

>  <r_i_glide_gscore>  (350) 
-3.91383

>  <r_i_glide_lipo>  (350) 
-0.13319

>  <r_i_glide_hbond>  (350) 
-0.16

>  <r_i_glide_metal>  (350) 
-0

>  <r_i_glide_rewards>  (350) 
-1.98826

>  <r_i_glide_evdw>  (350) 
-15.378

>  <r_i_glide_ecoul>  (350) 
-6.88479

>  <r_i_glide_erotb>  (350) 
0.366854

>  <r_i_glide_esite>  (350) 
-0.197607

>  <r_i_glide_emodel>  (350) 
-30.3785

>  <r_i_glide_energy>  (350) 
-22.2628

>  <r_i_glide_einternal>  (350) 
0.00989416

>  <r_i_glide_intrahb_reward>  (350) 
-0

>  <i_i_glide_confnum>  (350) 
3

>  <i_i_glide_posenum>  (350) 
1

>  <r_i_glide_eff_state_penalty>  (350) 
0

>  <ligand_id>  (350) 
107

>  <original_smiles>  (350) 
CCn1cnc2cc(-c3nn[nH]n3)ccc21

>  <smiles>  (350) 
[H]c1c(-c2nnn[n-]2)c([H])c2nc([H])n(C([H])([H])C([H])([H])[H])c2c1[H]

$$$$
107:0:1
     RDKit          3D

 25 27  0  0  1  0  0  0  0  0999 V2000
    0.4135  -10.9522    2.7272 C   0  0  0  0  0  0  0  0  0  0  0  0
    1.4911   -9.8813    2.5358 C   0  0  0  0  0  0  0  0  0  0  0  0
    0.9865   -8.5636    2.8662 N   0  0  0  0  0  0  0  0  0  0  0  0
    0.6436   -7.5902    2.0010 C   0  0  0  0  0  0  0  0  0  0  0  0
    0.2088   -6.4415    2.5146 N   0  0  0  0  0  0  0  0  0  0  0  0
    0.2834   -6.7072    3.8758 C   0  0  0  0  0  0  0  0  0  0  0  0
   -0.0295   -5.8915    4.9828 C   0  0  0  0  0  0  0  0  0  0  0  0
    0.1248   -6.3483    6.3172 C   0  0  0  0  0  0  0  0  0  0  0  0
   -0.2161   -5.4740    7.4694 C   0  0  0  0  0  0  0  0  0  0  0  0
   -0.8994   -4.3257    7.3403 N   0  0  0  0  0  0  0  0  0  0  0  0
   -0.9779   -3.8855    8.6048 N   0  0  0  0  0  0  0  0  0  0  0  0
   -0.3726   -4.7521    9.4308 N   0  0  0  0  0  0  0  0  0  0  0  0
    0.1140   -5.7863    8.7313 N   0  0  0  0  0  0  0  0  0  0  0  0
    0.6005   -7.6706    6.5218 C   0  0  0  0  0  0  0  0  0  0  0  0
    0.9148   -8.5094    5.4358 C   0  0  0  0  0  0  0  0  0  0  0  0
    0.7613   -8.0250    4.1266 C   0  0  0  0  0  0  0  0  0  0  0  0
    0.7938  -11.9453    2.4841 H   0  0  0  0  0  0  0  0  0  0  0  0
   -0.4421  -10.7513    2.0803 H   0  0  0  0  0  0  0  0  0  0  0  0
    0.0622  -10.9857    3.7600 H   0  0  0  0  0  0  0  0  0  0  0  0
    2.3533  -10.0916    3.1680 H   0  0  0  0  0  0  0  0  0  0  0  0
    1.8446   -9.8715    1.5032 H   0  0  0  0  0  0  0  0  0  0  0  0
    0.7198   -7.7349    0.9320 H   0  0  0  0  0  0  0  0  0  0  0  0
   -0.3843   -4.8893    4.8019 H   0  0  0  0  0  0  0  0  0  0  0  0
    0.7155   -8.0583    7.5248 H   0  0  0  0  0  0  0  0  0  0  0  0
    1.2681   -9.5142    5.6085 H   0  0  0  0  0  0  0  0  0  0  0  0
  1  2  1  0
  1 17  1  0
  1 18  1  0
  1 19  1  0
  2  3  1  0
  2 20  1  0
  2 21  1  0
  3 16  1  0
  3  4  1  0
  4  5  2  0
  4 22  1  0
  5  6  1  0
  6 16  2  0
  6  7  1  0
  7  8  2  0
  7 23  1  0
  8 14  1  0
  8  9  1  0
  9 13  2  0
  9 10  1  0
 10 11  1  0
 11 12  2  0
 12 13  1  0
 14 15  2  0
 14 24  1  0
 15 16  1  0
 15 25  1  0
M  CHG  1  10  -1
M  END
>  <i_m_ct_stereo_status>  (351) 
1

>  <s_m_source_file>  (351) 
/var/tmp/pbs.5076255.sched01/tmpmzi298dc/117y2go66iu.sdf

>  <i_m_source_file_index>  (351) 
27

>  <i_lp_mmshare_version>  (351) 
48012

>  <i_f3d_flags>  (351) 
0

>  <s_epik_input>  (351) 
W0NIM11bQ0gyXW4oW2NIXW4xKWMoYzEyKVtjSF1bY0hdYyhbY0hdMiktYzNubltuSF1uMw==

>  <s_epik_cmdline>  (351) 
J2VwaWtfcHl0aG9uJywgJy1waHQnLCAnMi4wJywgJy1waCcsICc3LjAnLCAnLXRuJywgJzgnLCAnLW1hJywgJzIwMCcsICctaW1hZScsICc8aW5maWxlLm1hZT4nLCAnLW9tYWUnLCAnPG91dGZpbGUubWFlPic=

>  <r_epik_Ionization_Penalty>  (351) 
0.0697959

>  <r_epik_Ionization_Penalty_Charging>  (351) 
0.000927567

>  <r_epik_Ionization_Penalty_Neutral>  (351) 
0.0688683

>  <r_epik_State_Penalty>  (351) 
0.0602883

>  <r_epik_Charging_Adjusted_Penalty>  (351) 
0.0612159

>  <i_epik_Tot_Q>  (351) 
-1

>  <i_epik_Tot_abs_Q>  (351) 
1

>  <s_lp_Force_Field>  (351) 
OPLS3e

>  <r_lp_Energy>  (351) 
16.5255

>  <b_lp_Chiralities_Consistent>  (351) 
1

>  <s_lp_Variant>  (351) 
107:0-1

>  <s_i_glide_gridfile>  (351) 
pfpi4k_grid

>  <i_i_glide_lignum>  (351) 
27

>  <i_i_glide_rotatable_bonds>  (351) 
2

>  <r_i_docking_score>  (351) 
-3.79287

>  <r_i_glide_ligand_efficiency>  (351) 
-0.237054

>  <r_i_glide_ligand_efficiency_sa>  (351) 
-0.597339

>  <r_i_glide_ligand_efficiency_ln>  (351) 
-1.00538

>  <r_i_glide_gscore>  (351) 
-3.79287

>  <r_i_glide_lipo>  (351) 
-0.181278

>  <r_i_glide_hbond>  (351) 
-0.130569

>  <r_i_glide_metal>  (351) 
-0

>  <r_i_glide_rewards>  (351) 
-1.99874

>  <r_i_glide_evdw>  (351) 
-16.1593

>  <r_i_glide_ecoul>  (351) 
-5.74444

>  <r_i_glide_erotb>  (351) 
0.366854

>  <r_i_glide_esite>  (351) 
-0.179499

>  <r_i_glide_emodel>  (351) 
-29.7272

>  <r_i_glide_energy>  (351) 
-21.9038

>  <r_i_glide_einternal>  (351) 
0.0980766

>  <r_i_glide_intrahb_reward>  (351) 
-0

>  <i_i_glide_confnum>  (351) 
2

>  <i_i_glide_posenum>  (351) 
12

>  <r_i_glide_eff_state_penalty>  (351) 
0

>  <ligand_id>  (351) 
107

>  <original_smiles>  (351) 
CCn1cnc2cc(-c3nn[nH]n3)ccc21

>  <smiles>  (351) 
[H]c1c(-c2nnn[n-]2)c([H])c2nc([H])n(C([H])([H])C([H])([H])[H])c2c1[H]

$$$$
107:0:2
     RDKit          3D

 25 27  0  0  1  0  0  0  0  0999 V2000
    3.2114    0.4351   -4.9496 C   0  0  0  0  0  0  0  0  0  0  0  0
    3.2216    0.0767   -3.4593 C   0  0  0  0  0  0  0  0  0  0  0  0
    3.6926   -1.2668   -3.2145 N   0  0  0  0  0  0  0  0  0  0  0  0
    3.3137   -2.3718   -3.8795 C   0  0  0  0  0  0  0  0  0  0  0  0
    3.8823   -3.5033   -3.5179 N   0  0  0  0  0  0  0  0  0  0  0  0
    4.6203   -3.1138   -2.4162 C   0  0  0  0  0  0  0  0  0  0  0  0
    5.3902   -3.8722   -1.5119 C   0  0  0  0  0  0  0  0  0  0  0  0
    6.1321   -3.2640   -0.4704 C   0  0  0  0  0  0  0  0  0  0  0  0
    6.9714   -4.0738    0.4224 C   0  0  0  0  0  0  0  0  0  0  0  0
    6.4512   -4.9679    1.2654 N   0  0  0  0  0  0  0  0  0  0  0  0
    7.5465   -5.4695    1.8563 N   0  0  0  0  0  0  0  0  0  0  0  0
    8.6500   -4.8933    1.3430 N   0  0  0  0  0  0  0  0  0  0  0  0
    8.3041   -3.9711    0.4323 N   0  0  0  0  0  0  0  0  0  0  0  0
    6.0477   -1.8677   -0.2937 C   0  0  0  0  0  0  0  0  0  0  0  0
    5.2280   -1.0995   -1.1429 C   0  0  0  0  0  0  0  0  0  0  0  0
    4.5406   -1.7136   -2.2017 C   0  0  0  0  0  0  0  0  0  0  0  0
    2.8791    1.4619   -5.1062 H   0  0  0  0  0  0  0  0  0  0  0  0
    2.5368   -0.2136   -5.5147 H   0  0  0  0  0  0  0  0  0  0  0  0
    4.2111    0.3342   -5.3685 H   0  0  0  0  0  0  0  0  0  0  0  0
    3.8648    0.7689   -2.9290 H   0  0  0  0  0  0  0  0  0  0  0  0
    2.2183    0.1461   -3.0430 H   0  0  0  0  0  0  0  0  0  0  0  0
    2.6046   -2.3398   -4.6896 H   0  0  0  0  0  0  0  0  0  0  0  0
    5.3990   -4.9430   -1.6368 H   0  0  0  0  0  0  0  0  0  0  0  0
    6.5945   -1.4019    0.5251 H   0  0  0  0  0  0  0  0  0  0  0  0
    5.1089   -0.0491   -0.9780 H   0  0  0  0  0  0  0  0  0  0  0  0
  1  2  1  0
  1 17  1  0
  1 18  1  0
  1 19  1  0
  2  3  1  0
  2 20  1  0
  2 21  1  0
  3 16  1  0
  3  4  1  0
  4  5  2  0
  4 22  1  0
  5  6  1  0
  6 16  2  0
  6  7  1  0
  7  8  2  0
  7 23  1  0
  8 14  1  0
  8  9  1  0
  9 13  2  0
  9 10  1  0
 10 11  1  0
 11 12  2  0
 12 13  1  0
 14 15  2  0
 14 24  1  0
 15 16  1  0
 15 25  1  0
M  CHG  1  10  -1
M  END
>  <i_m_ct_stereo_status>  (352) 
1

>  <s_m_source_file>  (352) 
/var/tmp/pbs.5076255.sched01/tmpmzi298dc/117y2go66iu.sdf

>  <i_m_source_file_index>  (352) 
27

>  <i_lp_mmshare_version>  (352) 
48012

>  <i_f3d_flags>  (352) 
0

>  <s_epik_input>  (352) 
W0NIM11bQ0gyXW4oW2NIXW4xKWMoYzEyKVtjSF1bY0hdYyhbY0hdMiktYzNubltuSF1uMw==

>  <s_epik_cmdline>  (352) 
J2VwaWtfcHl0aG9uJywgJy1waHQnLCAnMi4wJywgJy1waCcsICc3LjAnLCAnLXRuJywgJzgnLCAnLW1hJywgJzIwMCcsICctaW1hZScsICc8aW5maWxlLm1hZT4nLCAnLW9tYWUnLCAnPG91dGZpbGUubWFlPic=

>  <r_epik_Ionization_Penalty>  (352) 
0.0697959

>  <r_epik_Ionization_Penalty_Charging>  (352) 
0.000927567

>  <r_epik_Ionization_Penalty_Neutral>  (352) 
0.0688683

>  <r_epik_State_Penalty>  (352) 
0.0602883

>  <r_epik_Charging_Adjusted_Penalty>  (352) 
0.0612159

>  <i_epik_Tot_Q>  (352) 
-1

>  <i_epik_Tot_abs_Q>  (352) 
1

>  <s_lp_Force_Field>  (352) 
OPLS3e

>  <r_lp_Energy>  (352) 
16.5255

>  <b_lp_Chiralities_Consistent>  (352) 
1

>  <s_lp_Variant>  (352) 
107:0-1

>  <s_i_glide_gridfile>  (352) 
pfpi4k_grid

>  <i_i_glide_lignum>  (352) 
27

>  <i_i_glide_rotatable_bonds>  (352) 
2

>  <r_i_docking_score>  (352) 
-3.68553

>  <r_i_glide_ligand_efficiency>  (352) 
-0.230346

>  <r_i_glide_ligand_efficiency_sa>  (352) 
-0.580435

>  <r_i_glide_ligand_efficiency_ln>  (352) 
-0.976925

>  <r_i_glide_gscore>  (352) 
-3.68553

>  <r_i_glide_lipo>  (352) 
-0.219089

>  <r_i_glide_hbond>  (352) 
0

>  <r_i_glide_metal>  (352) 
-0

>  <r_i_glide_rewards>  (352) 
-2.39227

>  <r_i_glide_evdw>  (352) 
-24.4289

>  <r_i_glide_ecoul>  (352) 
-1.38821

>  <r_i_glide_erotb>  (352) 
0.366854

>  <r_i_glide_esite>  (352) 
-0.011349

>  <r_i_glide_emodel>  (352) 
-31.9932

>  <r_i_glide_energy>  (352) 
-25.8172

>  <r_i_glide_einternal>  (352) 
2.71854

>  <r_i_glide_intrahb_reward>  (352) 
-0

>  <i_i_glide_confnum>  (352) 
2

>  <i_i_glide_posenum>  (352) 
21

>  <r_i_glide_eff_state_penalty>  (352) 
0

>  <ligand_id>  (352) 
107

>  <original_smiles>  (352) 
CCn1cnc2cc(-c3nn[nH]n3)ccc21

>  <smiles>  (352) 
[H]c1c(-c2nnn[n-]2)c([H])c2nc([H])n(C([H])([H])C([H])([H])[H])c2c1[H]

$$$$
107:1:0
     RDKit          3D

 26 28  0  0  1  0  0  0  0  0999 V2000
    8.1079   -2.0945   -0.1357 C   0  0  0  0  0  0  0  0  0  0  0  0
    7.4180   -2.6488   -1.3954 C   0  0  0  0  0  0  0  0  0  0  0  0
    5.9480   -2.5722   -1.3106 N   0  0  0  0  0  0  0  0  0  0  0  0
    5.0865   -1.6238   -1.7911 C   0  0  0  0  0  0  0  0  0  0  0  0
    3.8263   -1.9940   -1.4510 N   0  0  0  0  0  0  0  0  0  0  0  0
    3.8821   -3.1975   -0.7521 C   0  0  0  0  0  0  0  0  0  0  0  0
    2.8568   -3.9509   -0.2170 C   0  0  0  0  0  0  0  0  0  0  0  0
    3.1962   -5.1488    0.4702 C   0  0  0  0  0  0  0  0  0  0  0  0
    2.1379   -5.9980    1.0670 C   0  0  0  0  0  0  0  0  0  0  0  0
    2.2612   -6.5466    2.2839 N   0  0  0  0  0  0  0  0  0  0  0  0
    1.0931   -7.1791    2.4487 N   0  0  0  0  0  0  0  0  0  0  0  0
    0.3266   -6.9897    1.3597 N   0  0  0  0  0  0  0  0  0  0  0  0
    0.9755   -6.2435    0.4550 N   0  0  0  0  0  0  0  0  0  0  0  0
    4.5549   -5.5305    0.5725 C   0  0  0  0  0  0  0  0  0  0  0  0
    5.5968   -4.7527    0.0178 C   0  0  0  0  0  0  0  0  0  0  0  0
    5.2315   -3.5820   -0.6499 C   0  0  0  0  0  0  0  0  0  0  0  0
    9.1946   -2.0753   -0.2560 H   0  0  0  0  0  0  0  0  0  0  0  0
    7.8845   -2.7083    0.7349 H   0  0  0  0  0  0  0  0  0  0  0  0
    7.7799   -1.0805    0.0889 H   0  0  0  0  0  0  0  0  0  0  0  0
    7.7333   -2.0743   -2.2668 H   0  0  0  0  0  0  0  0  0  0  0  0
    7.7324   -3.6767   -1.6078 H   0  0  0  0  0  0  0  0  0  0  0  0
    5.3376   -0.7097   -2.3111 H   0  0  0  0  0  0  0  0  0  0  0  0
    1.8308   -3.6402   -0.3300 H   0  0  0  0  0  0  0  0  0  0  0  0
    4.7679   -6.4637    1.0815 H   0  0  0  0  0  0  0  0  0  0  0  0
    6.6208   -5.0720    0.0963 H   0  0  0  0  0  0  0  0  0  0  0  0
    2.9764   -1.4694   -1.6343 H   0  0  0  0  0  0  0  0  0  0  0  0
  1  2  1  0
  1 17  1  0
  1 18  1  0
  1 19  1  0
  2  3  1  0
  2 20  1  0
  2 21  1  0
  3 16  1  0
  3  4  1  0
  4  5  2  0
  4 22  1  0
  5  6  1  0
  5 26  1  0
  6 16  2  0
  6  7  1  0
  7  8  2  0
  7 23  1  0
  8 14  1  0
  8  9  1  0
  9 13  2  0
  9 10  1  0
 10 11  1  0
 11 12  2  0
 12 13  1  0
 14 15  2  0
 14 24  1  0
 15 16  1  0
 15 25  1  0
M  CHG  2   5   1  10  -1
M  END
>  <i_m_ct_stereo_status>  (353) 
1

>  <s_m_source_file>  (353) 
/var/tmp/pbs.5076255.sched01/tmpmzi298dc/117y2go66iu.sdf

>  <i_m_source_file_index>  (353) 
28

>  <i_lp_mmshare_version>  (353) 
48012

>  <i_f3d_flags>  (353) 
0

>  <s_epik_input>  (353) 
W0NIM11bQ0gyXW4oW2NIXW4xKWMoYzEyKVtjSF1bY0hdYyhbY0hdMiktYzNubltuSF1uMw==

>  <s_epik_cmdline>  (353) 
J2VwaWtfcHl0aG9uJywgJy1waHQnLCAnMi4wJywgJy1waCcsICc3LjAnLCAnLXRuJywgJzgnLCAnLW1hJywgJzIwMCcsICctaW1hZScsICc8aW5maWxlLm1hZT4nLCAnLW9tYWUnLCAnPG91dGZpbGUubWFlPic=

>  <r_epik_Ionization_Penalty>  (353) 
1.31014

>  <r_epik_Ionization_Penalty_Charging>  (353) 
1.31014

>  <r_epik_Ionization_Penalty_Neutral>  (353) 
0

>  <r_epik_State_Penalty>  (353) 
1.38383

>  <r_epik_Charging_Adjusted_Penalty>  (353) 
2.69397

>  <i_epik_Tot_Q>  (353) 
0

>  <i_epik_Tot_abs_Q>  (353) 
2

>  <s_lp_Force_Field>  (353) 
OPLS3e

>  <r_lp_Energy>  (353) 
18.8045

>  <b_lp_Chiralities_Consistent>  (353) 
1

>  <s_lp_Variant>  (353) 
107:0-2

>  <s_i_glide_gridfile>  (353) 
pfpi4k_grid

>  <i_i_glide_lignum>  (353) 
28

>  <i_i_glide_rotatable_bonds>  (353) 
2

>  <r_i_docking_score>  (353) 
-3.96659

>  <r_i_glide_ligand_efficiency>  (353) 
-0.247912

>  <r_i_glide_ligand_efficiency_sa>  (353) 
-0.624698

>  <r_i_glide_ligand_efficiency_ln>  (353) 
-1.05142

>  <r_i_glide_gscore>  (353) 
-3.96659

>  <r_i_glide_lipo>  (353) 
-0.215075

>  <r_i_glide_hbond>  (353) 
0

>  <r_i_glide_metal>  (353) 
-0

>  <r_i_glide_rewards>  (353) 
-1.94846

>  <r_i_glide_evdw>  (353) 
-20.3237

>  <r_i_glide_ecoul>  (353) 
-5.11218

>  <r_i_glide_erotb>  (353) 
0.363957

>  <r_i_glide_esite>  (353) 
-0.384002

>  <r_i_glide_emodel>  (353) 
-34.2369

>  <r_i_glide_energy>  (353) 
-25.4358

>  <r_i_glide_einternal>  (353) 
0.84273

>  <r_i_glide_intrahb_reward>  (353) 
-0

>  <i_i_glide_confnum>  (353) 
3

>  <i_i_glide_posenum>  (353) 
36

>  <r_i_glide_eff_state_penalty>  (353) 
0

>  <ligand_id>  (353) 
107

>  <original_smiles>  (353) 
CCn1cnc2cc(-c3nn[nH]n3)ccc21

>  <smiles>  (353) 
[H]c1c(-c2nnn[n-]2)c([H])c2c(c1[H])n(C([H])([H])C([H])([H])[H])c([H])[n+]2[H]

$$$$
107:1:1
     RDKit          3D

 26 28  0  0  1  0  0  0  0  0999 V2000
    8.1229   -2.3292   -0.2327 C   0  0  0  0  0  0  0  0  0  0  0  0
    6.9680   -1.5099    0.3688 C   0  0  0  0  0  0  0  0  0  0  0  0
    5.6667   -1.8884   -0.1847 N   0  0  0  0  0  0  0  0  0  0  0  0
    4.9970   -1.3851   -1.2633 C   0  0  0  0  0  0  0  0  0  0  0  0
    3.8241   -2.0567   -1.3732 N   0  0  0  0  0  0  0  0  0  0  0  0
    3.7359   -3.0010   -0.3516 C   0  0  0  0  0  0  0  0  0  0  0  0
    2.7340   -3.9151   -0.0721 C   0  0  0  0  0  0  0  0  0  0  0  0
    2.9020   -4.7680    1.0573 C   0  0  0  0  0  0  0  0  0  0  0  0
    1.8610   -5.7563    1.4063 C   0  0  0  0  0  0  0  0  0  0  0  0
    1.6474   -6.1480    2.6704 N   0  0  0  0  0  0  0  0  0  0  0  0
    0.5888   -6.9646    2.5548 N   0  0  0  0  0  0  0  0  0  0  0  0
    0.1907   -7.0084    1.2700 N   0  0  0  0  0  0  0  0  0  0  0  0
    0.9986   -6.2576    0.5079 N   0  0  0  0  0  0  0  0  0  0  0  0
    4.0740   -4.6488    1.8395 C   0  0  0  0  0  0  0  0  0  0  0  0
    5.1027   -3.7204    1.5354 C   0  0  0  0  0  0  0  0  0  0  0  0
    4.9035   -2.8988    0.4222 C   0  0  0  0  0  0  0  0  0  0  0  0
    9.0942   -1.9722    0.1250 H   0  0  0  0  0  0  0  0  0  0  0  0
    8.1437   -2.2679   -1.3219 H   0  0  0  0  0  0  0  0  0  0  0  0
    8.0296   -3.3820    0.0312 H   0  0  0  0  0  0  0  0  0  0  0  0
    6.9427   -1.5681    1.4598 H   0  0  0  0  0  0  0  0  0  0  0  0
    7.1177   -0.4588    0.1311 H   0  0  0  0  0  0  0  0  0  0  0  0
    5.3327   -0.5892   -1.9160 H   0  0  0  0  0  0  0  0  0  0  0  0
    1.8561   -3.9872   -0.6988 H   0  0  0  0  0  0  0  0  0  0  0  0
    4.1793   -5.3110    2.6940 H   0  0  0  0  0  0  0  0  0  0  0  0
    5.9988   -3.6696    2.1368 H   0  0  0  0  0  0  0  0  0  0  0  0
    3.1076   -1.8751   -2.0638 H   0  0  0  0  0  0  0  0  0  0  0  0
  1  2  1  0
  1 17  1  0
  1 18  1  0
  1 19  1  0
  2  3  1  0
  2 20  1  0
  2 21  1  0
  3 16  1  0
  3  4  1  0
  4  5  2  0
  4 22  1  0
  5  6  1  0
  5 26  1  0
  6 16  2  0
  6  7  1  0
  7  8  2  0
  7 23  1  0
  8 14  1  0
  8  9  1  0
  9 13  2  0
  9 10  1  0
 10 11  1  0
 11 12  2  0
 12 13  1  0
 14 15  2  0
 14 24  1  0
 15 16  1  0
 15 25  1  0
M  CHG  2   5   1  10  -1
M  END
>  <i_m_ct_stereo_status>  (354) 
1

>  <s_m_source_file>  (354) 
/var/tmp/pbs.5076255.sched01/tmpmzi298dc/117y2go66iu.sdf

>  <i_m_source_file_index>  (354) 
28

>  <i_lp_mmshare_version>  (354) 
48012

>  <i_f3d_flags>  (354) 
0

>  <s_epik_input>  (354) 
W0NIM11bQ0gyXW4oW2NIXW4xKWMoYzEyKVtjSF1bY0hdYyhbY0hdMiktYzNubltuSF1uMw==

>  <s_epik_cmdline>  (354) 
J2VwaWtfcHl0aG9uJywgJy1waHQnLCAnMi4wJywgJy1waCcsICc3LjAnLCAnLXRuJywgJzgnLCAnLW1hJywgJzIwMCcsICctaW1hZScsICc8aW5maWxlLm1hZT4nLCAnLW9tYWUnLCAnPG91dGZpbGUubWFlPic=

>  <r_epik_Ionization_Penalty>  (354) 
1.31014

>  <r_epik_Ionization_Penalty_Charging>  (354) 
1.31014

>  <r_epik_Ionization_Penalty_Neutral>  (354) 
0

>  <r_epik_State_Penalty>  (354) 
1.38383

>  <r_epik_Charging_Adjusted_Penalty>  (354) 
2.69397

>  <i_epik_Tot_Q>  (354) 
0

>  <i_epik_Tot_abs_Q>  (354) 
2

>  <s_lp_Force_Field>  (354) 
OPLS3e

>  <r_lp_Energy>  (354) 
18.8045

>  <b_lp_Chiralities_Consistent>  (354) 
1

>  <s_lp_Variant>  (354) 
107:0-2

>  <s_i_glide_gridfile>  (354) 
pfpi4k_grid

>  <i_i_glide_lignum>  (354) 
28

>  <i_i_glide_rotatable_bonds>  (354) 
2

>  <r_i_docking_score>  (354) 
-3.77064

>  <r_i_glide_ligand_efficiency>  (354) 
-0.235665

>  <r_i_glide_ligand_efficiency_sa>  (354) 
-0.593839

>  <r_i_glide_ligand_efficiency_ln>  (354) 
-0.999483

>  <r_i_glide_gscore>  (354) 
-3.77064

>  <r_i_glide_lipo>  (354) 
-0.0684203

>  <r_i_glide_hbond>  (354) 
0

>  <r_i_glide_metal>  (354) 
-0

>  <r_i_glide_rewards>  (354) 
-1.94846

>  <r_i_glide_evdw>  (354) 
-19.3409

>  <r_i_glide_ecoul>  (354) 
-4.73665

>  <r_i_glide_erotb>  (354) 
0.363957

>  <r_i_glide_esite>  (354) 
-0.440178

>  <r_i_glide_emodel>  (354) 
-32.691

>  <r_i_glide_energy>  (354) 
-24.0776

>  <r_i_glide_einternal>  (354) 
0.278826

>  <r_i_glide_intrahb_reward>  (354) 
-0

>  <i_i_glide_confnum>  (354) 
3

>  <i_i_glide_posenum>  (354) 
2

>  <r_i_glide_eff_state_penalty>  (354) 
0

>  <ligand_id>  (354) 
107

>  <original_smiles>  (354) 
CCn1cnc2cc(-c3nn[nH]n3)ccc21

>  <smiles>  (354) 
[H]c1c(-c2nnn[n-]2)c([H])c2c(c1[H])n(C([H])([H])C([H])([H])[H])c([H])[n+]2[H]

$$$$
107:1:2
     RDKit          3D

 26 28  0  0  1  0  0  0  0  0999 V2000
    3.0987    0.1519   -4.4542 C   0  0  0  0  0  0  0  0  0  0  0  0
    4.1049   -0.4906   -3.4867 C   0  0  0  0  0  0  0  0  0  0  0  0
    3.5213   -1.6411   -2.7825 N   0  0  0  0  0  0  0  0  0  0  0  0
    2.7543   -2.6436   -3.2919 C   0  0  0  0  0  0  0  0  0  0  0  0
    2.4159   -3.4593   -2.2648 N   0  0  0  0  0  0  0  0  0  0  0  0
    3.0134   -3.0166   -1.0891 C   0  0  0  0  0  0  0  0  0  0  0  0
    2.9763   -3.5354    0.1962 C   0  0  0  0  0  0  0  0  0  0  0  0
    3.6726   -2.8488    1.2177 C   0  0  0  0  0  0  0  0  0  0  0  0
    3.6417   -3.3534    2.6048 C   0  0  0  0  0  0  0  0  0  0  0  0
    2.7162   -4.2249    3.0389 N   0  0  0  0  0  0  0  0  0  0  0  0
    3.0667   -4.4023    4.3178 N   0  0  0  0  0  0  0  0  0  0  0  0
    4.1467   -3.6623    4.6075 N   0  0  0  0  0  0  0  0  0  0  0  0
    4.5343   -2.9753    3.5288 N   0  0  0  0  0  0  0  0  0  0  0  0
    4.3996   -1.6758    0.8960 C   0  0  0  0  0  0  0  0  0  0  0  0
    4.4526   -1.1633   -0.4212 C   0  0  0  0  0  0  0  0  0  0  0  0
    3.7361   -1.8483   -1.4044 C   0  0  0  0  0  0  0  0  0  0  0  0
    3.5213    0.9852   -5.0195 H   0  0  0  0  0  0  0  0  0  0  0  0
    2.2288    0.5210   -3.9192 H   0  0  0  0  0  0  0  0  0  0  0  0
    2.7196   -0.5749   -5.1663 H   0  0  0  0  0  0  0  0  0  0  0  0
    4.9449   -0.8805   -4.0574 H   0  0  0  0  0  0  0  0  0  0  0  0
    4.4723    0.2517   -2.7773 H   0  0  0  0  0  0  0  0  0  0  0  0
    2.4188   -2.7586   -4.3151 H   0  0  0  0  0  0  0  0  0  0  0  0
    2.4340   -4.4371    0.4152 H   0  0  0  0  0  0  0  0  0  0  0  0
    4.9170   -1.1567    1.6952 H   0  0  0  0  0  0  0  0  0  0  0  0
    5.0058   -0.2663   -0.6283 H   0  0  0  0  0  0  0  0  0  0  0  0
    1.8953   -4.3179   -2.3866 H   0  0  0  0  0  0  0  0  0  0  0  0
  1  2  1  0
  1 17  1  0
  1 18  1  0
  1 19  1  0
  2  3  1  0
  2 20  1  0
  2 21  1  0
  3 16  1  0
  3  4  1  0
  4  5  2  0
  4 22  1  0
  5  6  1  0
  5 26  1  0
  6 16  2  0
  6  7  1  0
  7  8  2  0
  7 23  1  0
  8 14  1  0
  8  9  1  0
  9 13  2  0
  9 10  1  0
 10 11  1  0
 11 12  2  0
 12 13  1  0
 14 15  2  0
 14 24  1  0
 15 16  1  0
 15 25  1  0
M  CHG  2   5   1  10  -1
M  END
>  <i_m_ct_stereo_status>  (355) 
1

>  <s_m_source_file>  (355) 
/var/tmp/pbs.5076255.sched01/tmpmzi298dc/117y2go66iu.sdf

>  <i_m_source_file_index>  (355) 
28

>  <i_lp_mmshare_version>  (355) 
48012

>  <i_f3d_flags>  (355) 
0

>  <s_epik_input>  (355) 
W0NIM11bQ0gyXW4oW2NIXW4xKWMoYzEyKVtjSF1bY0hdYyhbY0hdMiktYzNubltuSF1uMw==

>  <s_epik_cmdline>  (355) 
J2VwaWtfcHl0aG9uJywgJy1waHQnLCAnMi4wJywgJy1waCcsICc3LjAnLCAnLXRuJywgJzgnLCAnLW1hJywgJzIwMCcsICctaW1hZScsICc8aW5maWxlLm1hZT4nLCAnLW9tYWUnLCAnPG91dGZpbGUubWFlPic=

>  <r_epik_Ionization_Penalty>  (355) 
1.31014

>  <r_epik_Ionization_Penalty_Charging>  (355) 
1.31014

>  <r_epik_Ionization_Penalty_Neutral>  (355) 
0

>  <r_epik_State_Penalty>  (355) 
1.38383

>  <r_epik_Charging_Adjusted_Penalty>  (355) 
2.69397

>  <i_epik_Tot_Q>  (355) 
0

>  <i_epik_Tot_abs_Q>  (355) 
2

>  <s_lp_Force_Field>  (355) 
OPLS3e

>  <r_lp_Energy>  (355) 
18.8045

>  <b_lp_Chiralities_Consistent>  (355) 
1

>  <s_lp_Variant>  (355) 
107:0-2

>  <s_i_glide_gridfile>  (355) 
pfpi4k_grid

>  <i_i_glide_lignum>  (355) 
28

>  <i_i_glide_rotatable_bonds>  (355) 
2

>  <r_i_docking_score>  (355) 
-3.60154

>  <r_i_glide_ligand_efficiency>  (355) 
-0.225096

>  <r_i_glide_ligand_efficiency_sa>  (355) 
-0.567206

>  <r_i_glide_ligand_efficiency_ln>  (355) 
-0.954659

>  <r_i_glide_gscore>  (355) 
-3.60154

>  <r_i_glide_lipo>  (355) 
-0.30803

>  <r_i_glide_hbond>  (355) 
0

>  <r_i_glide_metal>  (355) 
-0

>  <r_i_glide_rewards>  (355) 
-2.13979

>  <r_i_glide_evdw>  (355) 
-19.3538

>  <r_i_glide_ecoul>  (355) 
-3.48038

>  <r_i_glide_erotb>  (355) 
0.363957

>  <r_i_glide_esite>  (355) 
-0.0279286

>  <r_i_glide_emodel>  (355) 
-30.3903

>  <r_i_glide_energy>  (355) 
-22.8342

>  <r_i_glide_einternal>  (355) 
0.900826

>  <r_i_glide_intrahb_reward>  (355) 
-0

>  <i_i_glide_confnum>  (355) 
3

>  <i_i_glide_posenum>  (355) 
3

>  <r_i_glide_eff_state_penalty>  (355) 
0

>  <ligand_id>  (355) 
107

>  <original_smiles>  (355) 
CCn1cnc2cc(-c3nn[nH]n3)ccc21

>  <smiles>  (355) 
[H]c1c(-c2nnn[n-]2)c([H])c2c(c1[H])n(C([H])([H])C([H])([H])[H])c([H])[n+]2[H]

$$$$
109:0:0
     RDKit          3D

 66 71  0  0  1  0  0  0  0  0999 V2000
   -0.8000    3.3179    3.3444 C   0  0  0  0  0  0  0  0  0  0  0  0
   -0.1682    2.2627    4.2842 C   0  0  1  0  0  0  0  0  0  0  0  0
    0.6830    3.0094    5.3646 C   0  0  0  0  0  0  0  0  0  0  0  0
   -0.1476    3.9560    6.2551 C   0  0  0  0  0  0  0  0  0  0  0  0
   -1.3543    3.2432    6.8637 C   0  0  0  0  0  0  0  0  0  0  0  0
   -1.6641    3.3879    8.0497 O   0  0  0  0  0  0  0  0  0  0  0  0
   -2.1854    2.3659    5.9332 C   0  0  0  0  0  0  0  0  0  0  0  0
   -1.3258    1.4759    4.9973 C   0  0  2  0  0  0  0  0  0  0  0  0
   -0.8168    0.2358    5.7635 C   0  0  0  0  0  0  0  0  0  0  0  0
    0.0062   -0.6946    4.8729 C   0  0  0  0  0  0  0  0  0  0  0  0
    1.1919    0.0424    4.2196 C   0  0  1  0  0  0  0  0  0  0  0  0
    2.1470   -0.8926    3.4351 C   0  0  1  0  0  0  0  0  0  0  0  0
    1.5966   -2.2708    3.0220 C   0  0  0  0  0  0  0  0  0  0  0  0
    2.5238   -2.6681    1.8540 C   0  0  0  0  0  0  0  0  0  0  0  0
    2.5579   -3.8286    1.4622 O   0  0  0  0  0  0  0  0  0  0  0  0
    3.1757   -1.4705    1.3100 C   0  0  0  0  0  0  0  0  0  0  0  0
    4.0296   -1.4457    0.2208 C   0  0  0  0  0  0  0  0  0  0  0  0
    4.5424   -2.6456   -0.5601 C   0  0  1  0  0  0  0  0  0  0  0  0
    4.1534   -2.8456   -2.0437 C   0  0  1  0  0  0  0  0  0  0  0  0
    3.5230   -1.6929   -2.7935 C   0  0  0  0  0  0  0  0  0  0  0  0
    3.4176   -2.0719   -4.1630 O   0  0  0  0  0  0  0  0  0  0  0  0
    5.6115   -3.2102   -2.3745 C   0  0  0  0  0  0  0  0  0  0  0  0
    5.9582   -2.9622   -0.9370 C   0  0  2  0  0  0  0  0  0  0  0  0
    5.3313   -3.7223    0.1931 C   0  0  0  0  0  0  0  0  0  0  0  0
    5.8876   -3.5098    1.5807 C   0  0  0  0  0  0  0  0  0  0  0  0
    5.0043   -5.2116   -0.0228 C   0  0  0  0  0  0  0  0  0  0  0  0
    2.7132   -0.3777    2.1330 C   0  0  0  0  0  0  0  0  0  0  0  0
    2.6387    0.9309    1.7966 C   0  0  0  0  0  0  0  0  0  0  0  0
    1.8643    1.9313    2.6341 C   0  0  0  0  0  0  0  0  0  0  0  0
    0.6963    1.2735    3.4075 C   0  0  2  0  0  0  0  0  0  0  0  0
   -0.0331    3.9932    2.9715 H   0  0  0  0  0  0  0  0  0  0  0  0
   -1.5478    3.9393    3.8321 H   0  0  0  0  0  0  0  0  0  0  0  0
   -1.2756    2.8441    2.4841 H   0  0  0  0  0  0  0  0  0  0  0  0
    1.1609    2.2894    6.0309 H   0  0  0  0  0  0  0  0  0  0  0  0
    1.4883    3.5762    4.9046 H   0  0  0  0  0  0  0  0  0  0  0  0
    0.4684    4.3768    7.0505 H   0  0  0  0  0  0  0  0  0  0  0  0
   -0.5200    4.7976    5.6681 H   0  0  0  0  0  0  0  0  0  0  0  0
   -2.8566    1.7501    6.5334 H   0  0  0  0  0  0  0  0  0  0  0  0
   -2.8238    3.0293    5.3507 H   0  0  0  0  0  0  0  0  0  0  0  0
   -2.0049    1.1115    4.2229 H   0  0  0  0  0  0  0  0  0  0  0  0
   -0.2161    0.5344    6.6234 H   0  0  0  0  0  0  0  0  0  0  0  0
   -1.6712   -0.3163    6.1494 H   0  0  0  0  0  0  0  0  0  0  0  0
    0.3657   -1.5315    5.4700 H   0  0  0  0  0  0  0  0  0  0  0  0
   -0.6567   -1.1055    4.1078 H   0  0  0  0  0  0  0  0  0  0  0  0
    1.8031    0.4285    5.0414 H   0  0  0  0  0  0  0  0  0  0  0  0
    3.0031   -1.0786    4.0978 H   0  0  0  0  0  0  0  0  0  0  0  0
    1.6557   -3.0052    3.7968 H   0  0  0  0  0  0  0  0  0  0  0  0
    0.5823   -2.2236    2.6247 H   0  0  0  0  0  0  0  0  0  0  0  0
    4.4407   -0.5211   -0.1372 H   0  0  0  0  0  0  0  0  0  0  0  0
    3.5516   -3.7525   -2.1595 H   0  0  0  0  0  0  0  0  0  0  0  0
    2.5258   -1.4650   -2.4056 H   0  0  0  0  0  0  0  0  0  0  0  0
    4.1069   -0.7604   -2.7561 H   0  0  0  0  0  0  0  0  0  0  0  0
    2.6328   -1.7460   -4.5380 H   0  0  0  0  0  0  0  0  0  0  0  0
    5.7155   -4.2489   -2.7159 H   0  0  0  0  0  0  0  0  0  0  0  0
    6.0995   -2.5385   -3.0805 H   0  0  0  0  0  0  0  0  0  0  0  0
    6.7571   -2.2158   -0.7362 H   0  0  0  0  0  0  0  0  0  0  0  0
    6.7717   -4.1317    1.7635 H   0  0  0  0  0  0  0  0  0  0  0  0
    5.1449   -3.7234    2.3576 H   0  0  0  0  0  0  0  0  0  0  0  0
    6.2095   -2.4661    1.6954 H   0  0  0  0  0  0  0  0  0  0  0  0
    5.8970   -5.8288    0.1432 H   0  0  0  0  0  0  0  0  0  0  0  0
    4.6756   -5.3583   -1.0443 H   0  0  0  0  0  0  0  0  0  0  0  0
    4.1891   -5.5270    0.6362 H   0  0  0  0  0  0  0  0  0  0  0  0
    3.0373    1.2883    0.8770 H   0  0  0  0  0  0  0  0  0  0  0  0
    2.5753    2.4189    3.2930 H   0  0  0  0  0  0  0  0  0  0  0  0
    1.4627    2.6667    1.9428 H   0  0  0  0  0  0  0  0  0  0  0  0
    0.0079    0.8748    2.6503 H   0  0  0  0  0  0  0  0  0  0  0  0
  2  1  1  6
  1 31  1  0
  1 32  1  0
  1 33  1  0
  2  8  1  0
  2 30  1  0
  2  3  1  0
  3  4  1  0
  3 34  1  0
  3 35  1  0
  4  5  1  0
  4 36  1  0
  4 37  1  0
  5  6  2  0
  5  7  1  0
  7  8  1  0
  7 38  1  0
  7 39  1  0
  8  9  1  0
  8 40  1  6
  9 10  1  0
  9 41  1  0
  9 42  1  0
 10 11  1  0
 10 43  1  0
 10 44  1  0
 11 30  1  0
 11 12  1  0
 11 45  1  1
 12 27  1  0
 12 13  1  0
 12 46  1  1
 13 14  1  0
 13 47  1  0
 13 48  1  0
 14 15  2  0
 14 16  1  0
 16 17  2  3
 16 27  1  0
 17 18  1  0
 17 49  1  0
 18 23  1  0
 18 24  1  1
 18 19  1  0
 19 20  1  0
 19 22  1  0
 19 50  1  1
 20 21  1  0
 20 51  1  0
 20 52  1  0
 21 53  1  0
 22 23  1  0
 22 54  1  0
 22 55  1  0
 23 24  1  0
 23 56  1  6
 24 25  1  0
 24 26  1  0
 25 57  1  0
 25 58  1  0
 25 59  1  0
 26 60  1  0
 26 61  1  0
 26 62  1  0
 27 28  2  0
 28 29  1  0
 28 63  1  0
 29 30  1  0
 29 64  1  0
 29 65  1  0
 30 66  1  6
M  END
>  <i_m_ct_stereo_status>  (356) 
1

>  <s_m_source_file>  (356) 
/var/tmp/pbs.5076255.sched01/tmpmzi298dc/117y2go66iu.sdf

>  <i_m_source_file_index>  (356) 
30

>  <i_lp_mmshare_version>  (356) 
48012

>  <i_f3d_flags>  (356) 
0

>  <s_epik_input>  (356) 
W0NIMl0xW0NIMl1DKD1PKVtDSDJdW0NAQEhdKFtDQEBdMTJbQ0gzXSlbQ0gyXVtDSDJdW0NASF0zW0NAQEhdNEMoPVtDSF1bQ0gyXVtDQEhdMjMpQyhcQyg9TylbQ0gyXTQpPVtDSF1cW0NAXTU2W0NAQEhdKEM2KFtDSDNdKVtDSDNdKVtDSDJdW0NAQEhdNVtDSDJdW09IXQ==

>  <s_epik_cmdline>  (356) 
J2VwaWtfcHl0aG9uJywgJy1waHQnLCAnMi4wJywgJy1waCcsICc3LjAnLCAnLXRuJywgJzgnLCAnLW1hJywgJzIwMCcsICctaW1hZScsICc8aW5maWxlLm1hZT4nLCAnLW9tYWUnLCAnPG91dGZpbGUubWFlPic=

>  <r_lp_tautomer_probability>  (356) 
1

>  <r_epik_Ionization_Penalty>  (356) 
3.54457e-07

>  <r_epik_Ionization_Penalty_Charging>  (356) 
0

>  <r_epik_Ionization_Penalty_Neutral>  (356) 
3.54457e-07

>  <r_epik_State_Penalty>  (356) 
-0

>  <r_epik_Charging_Adjusted_Penalty>  (356) 
0

>  <i_epik_Tot_Q>  (356) 
0

>  <i_epik_Tot_abs_Q>  (356) 
0

>  <s_lp_Force_Field>  (356) 
OPLS3e

>  <r_lp_Energy>  (356) 
45.1136

>  <b_lp_Chiralities_Consistent>  (356) 
1

>  <s_lp_Variant>  (356) 
109:0-1

>  <s_i_glide_gridfile>  (356) 
pfpi4k_grid

>  <i_i_glide_lignum>  (356) 
30

>  <i_i_glide_rotatable_bonds>  (356) 
3

>  <r_i_docking_score>  (356) 
-3.39514

>  <r_i_glide_ligand_efficiency>  (356) 
-0.113171

>  <r_i_glide_ligand_efficiency_sa>  (356) 
-0.35165

>  <r_i_glide_ligand_efficiency_ln>  (356) 
-0.771413

>  <r_i_glide_gscore>  (356) 
-3.39514

>  <r_i_glide_lipo>  (356) 
-0.436727

>  <r_i_glide_hbond>  (356) 
-0.290923

>  <r_i_glide_metal>  (356) 
-0

>  <r_i_glide_rewards>  (356) 
-0.661187

>  <r_i_glide_evdw>  (356) 
-33.431

>  <r_i_glide_ecoul>  (356) 
-3.68677

>  <r_i_glide_erotb>  (356) 
0.235816

>  <r_i_glide_esite>  (356) 
-0.0175527

>  <r_i_glide_emodel>  (356) 
-42.3082

>  <r_i_glide_energy>  (356) 
-37.1178

>  <r_i_glide_einternal>  (356) 
1.69453

>  <r_i_glide_intrahb_reward>  (356) 
-0

>  <i_i_glide_confnum>  (356) 
2

>  <i_i_glide_posenum>  (356) 
36

>  <r_i_glide_eff_state_penalty>  (356) 
0

>  <ligand_id>  (356) 
109

>  <original_smiles>  (356) 
CC12CCC(=O)CC1CCC1C3CC(=O)C(=CC45C(CO)CC4C5(C)C)C3=CCC12

>  <smiles>  (356) 
[H]OC([H])([H])C1([H])C([H])([H])C2([H])C1(C([H])=C1C(=O)C([H])([H])C3([H])C1=C([H])C([H])([H])C1([H])C3([H])C([H])([H])C([H])([H])C3([H])C([H])([H])C(=O)C([H])([H])C([H])([H])C31C([H])([H])[H])C2(C([H])([H])[H])C([H])([H])[H]

$$$$
109:0:1
     RDKit          3D

 66 71  0  0  1  0  0  0  0  0999 V2000
   -0.7884    3.3153    3.3394 C   0  0  0  0  0  0  0  0  0  0  0  0
   -0.1597    2.2604    4.2796 C   0  0  1  0  0  0  0  0  0  0  0  0
    0.6920    3.0013    5.3592 C   0  0  0  0  0  0  0  0  0  0  0  0
   -0.1400    3.9468    6.2530 C   0  0  0  0  0  0  0  0  0  0  0  0
   -1.3477    3.2334    6.8472 C   0  0  0  0  0  0  0  0  0  0  0  0
   -1.6658    3.3780    8.0449 O   0  0  0  0  0  0  0  0  0  0  0  0
   -2.1793    2.3593    5.9226 C   0  0  0  0  0  0  0  0  0  0  0  0
   -1.3170    1.4679    4.9853 C   0  0  2  0  0  0  0  0  0  0  0  0
   -0.8137    0.2300    5.7539 C   0  0  0  0  0  0  0  0  0  0  0  0
    0.0090   -0.7045    4.8636 C   0  0  0  0  0  0  0  0  0  0  0  0
    1.2015    0.0335    4.2124 C   0  0  1  0  0  0  0  0  0  0  0  0
    2.1571   -0.8979    3.4267 C   0  0  1  0  0  0  0  0  0  0  0  0
    1.6033   -2.2731    3.0122 C   0  0  0  0  0  0  0  0  0  0  0  0
    2.5203   -2.6684    1.8531 C   0  0  0  0  0  0  0  0  0  0  0  0
    2.5769   -3.8382    1.4400 O   0  0  0  0  0  0  0  0  0  0  0  0
    3.1889   -1.4814    1.3065 C   0  0  0  0  0  0  0  0  0  0  0  0
    4.0406   -1.4482    0.2221 C   0  0  0  0  0  0  0  0  0  0  0  0
    4.5587   -2.6464   -0.5643 C   0  0  1  0  0  0  0  0  0  0  0  0
    4.1804   -2.8440   -2.0404 C   0  0  1  0  0  0  0  0  0  0  0  0
    3.5762   -1.6844   -2.7994 C   0  0  0  0  0  0  0  0  0  0  0  0
    3.4188   -2.0694   -4.1664 O   0  0  0  0  0  0  0  0  0  0  0  0
    5.6381   -3.2083   -2.3797 C   0  0  0  0  0  0  0  0  0  0  0  0
    5.9811   -2.9701   -0.9315 C   0  0  2  0  0  0  0  0  0  0  0  0
    5.3249   -3.7393    0.1844 C   0  0  0  0  0  0  0  0  0  0  0  0
    5.8825   -3.5361    1.5888 C   0  0  0  0  0  0  0  0  0  0  0  0
    4.9995   -5.2204   -0.0265 C   0  0  0  0  0  0  0  0  0  0  0  0
    2.7178   -0.3819    2.1279 C   0  0  0  0  0  0  0  0  0  0  0  0
    2.6578    0.9278    1.8065 C   0  0  0  0  0  0  0  0  0  0  0  0
    1.8737    1.9262    2.6377 C   0  0  0  0  0  0  0  0  0  0  0  0
    0.7041    1.2661    3.4078 C   0  0  2  0  0  0  0  0  0  0  0  0
   -0.0176    3.9883    2.9696 H   0  0  0  0  0  0  0  0  0  0  0  0
   -1.5344    3.9355    3.8261 H   0  0  0  0  0  0  0  0  0  0  0  0
   -1.2605    2.8417    2.4804 H   0  0  0  0  0  0  0  0  0  0  0  0
    1.1652    2.2799    6.0285 H   0  0  0  0  0  0  0  0  0  0  0  0
    1.4981    3.5682    4.9043 H   0  0  0  0  0  0  0  0  0  0  0  0
    0.4724    4.3650    7.0490 H   0  0  0  0  0  0  0  0  0  0  0  0
   -0.5108    4.7898    5.6654 H   0  0  0  0  0  0  0  0  0  0  0  0
   -2.8548    1.7436    6.5194 H   0  0  0  0  0  0  0  0  0  0  0  0
   -2.8175    3.0251    5.3388 H   0  0  0  0  0  0  0  0  0  0  0  0
   -1.9974    1.1081    4.2104 H   0  0  0  0  0  0  0  0  0  0  0  0
   -0.2141    0.5254    6.6133 H   0  0  0  0  0  0  0  0  0  0  0  0
   -1.6692   -0.3239    6.1341 H   0  0  0  0  0  0  0  0  0  0  0  0
    0.3687   -1.5371    5.4584 H   0  0  0  0  0  0  0  0  0  0  0  0
   -0.6490   -1.1076    4.0928 H   0  0  0  0  0  0  0  0  0  0  0  0
    1.8084    0.4196    5.0366 H   0  0  0  0  0  0  0  0  0  0  0  0
    3.0106   -1.0876    4.0958 H   0  0  0  0  0  0  0  0  0  0  0  0
    1.6609   -3.0122    3.7845 H   0  0  0  0  0  0  0  0  0  0  0  0
    0.5894   -2.2240    2.6151 H   0  0  0  0  0  0  0  0  0  0  0  0
    4.4647   -0.5238   -0.1391 H   0  0  0  0  0  0  0  0  0  0  0  0
    3.5726   -3.7470   -2.1696 H   0  0  0  0  0  0  0  0  0  0  0  0
    2.5989   -1.3914   -2.3989 H   0  0  0  0  0  0  0  0  0  0  0  0
    4.2028   -0.7778   -2.7972 H   0  0  0  0  0  0  0  0  0  0  0  0
    2.6705   -2.6392   -4.2196 H   0  0  0  0  0  0  0  0  0  0  0  0
    5.7400   -4.2407   -2.7172 H   0  0  0  0  0  0  0  0  0  0  0  0
    6.1337   -2.5418   -3.0740 H   0  0  0  0  0  0  0  0  0  0  0  0
    6.7710   -2.2255   -0.7220 H   0  0  0  0  0  0  0  0  0  0  0  0
    6.7672   -4.1639    1.7718 H   0  0  0  0  0  0  0  0  0  0  0  0
    5.1208   -3.7505    2.3533 H   0  0  0  0  0  0  0  0  0  0  0  0
    6.2112   -2.4893    1.7082 H   0  0  0  0  0  0  0  0  0  0  0  0
    5.8859   -5.8475    0.1356 H   0  0  0  0  0  0  0  0  0  0  0  0
    4.6918   -5.3539   -1.0644 H   0  0  0  0  0  0  0  0  0  0  0  0
    4.1706   -5.5251    0.6177 H   0  0  0  0  0  0  0  0  0  0  0  0
    3.0607    1.2908    0.8891 H   0  0  0  0  0  0  0  0  0  0  0  0
    2.5872    2.4092    3.2917 H   0  0  0  0  0  0  0  0  0  0  0  0
    1.4786    2.6626    1.9415 H   0  0  0  0  0  0  0  0  0  0  0  0
    0.0198    0.8729    2.6414 H   0  0  0  0  0  0  0  0  0  0  0  0
  2  1  1  6
  1 31  1  0
  1 32  1  0
  1 33  1  0
  2  8  1  0
  2 30  1  0
  2  3  1  0
  3  4  1  0
  3 34  1  0
  3 35  1  0
  4  5  1  0
  4 36  1  0
  4 37  1  0
  5  6  2  0
  5  7  1  0
  7  8  1  0
  7 38  1  0
  7 39  1  0
  8  9  1  0
  8 40  1  6
  9 10  1  0
  9 41  1  0
  9 42  1  0
 10 11  1  0
 10 43  1  0
 10 44  1  0
 11 30  1  0
 11 12  1  0
 11 45  1  1
 12 27  1  0
 12 13  1  0
 12 46  1  1
 13 14  1  0
 13 47  1  0
 13 48  1  0
 14 15  2  0
 14 16  1  0
 16 17  2  3
 16 27  1  0
 17 18  1  0
 17 49  1  0
 18 23  1  0
 18 24  1  1
 18 19  1  0
 19 20  1  0
 19 22  1  0
 19 50  1  1
 20 21  1  0
 20 51  1  0
 20 52  1  0
 21 53  1  0
 22 23  1  0
 22 54  1  0
 22 55  1  0
 23 24  1  0
 23 56  1  6
 24 25  1  0
 24 26  1  0
 25 57  1  0
 25 58  1  0
 25 59  1  0
 26 60  1  0
 26 61  1  0
 26 62  1  0
 27 28  2  0
 28 29  1  0
 28 63  1  0
 29 30  1  0
 29 64  1  0
 29 65  1  0
 30 66  1  6
M  END
>  <i_m_ct_stereo_status>  (357) 
1

>  <s_m_source_file>  (357) 
/var/tmp/pbs.5076255.sched01/tmpmzi298dc/117y2go66iu.sdf

>  <i_m_source_file_index>  (357) 
30

>  <i_lp_mmshare_version>  (357) 
48012

>  <i_f3d_flags>  (357) 
0

>  <s_epik_input>  (357) 
W0NIMl0xW0NIMl1DKD1PKVtDSDJdW0NAQEhdKFtDQEBdMTJbQ0gzXSlbQ0gyXVtDSDJdW0NASF0zW0NAQEhdNEMoPVtDSF1bQ0gyXVtDQEhdMjMpQyhcQyg9TylbQ0gyXTQpPVtDSF1cW0NAXTU2W0NAQEhdKEM2KFtDSDNdKVtDSDNdKVtDSDJdW0NAQEhdNVtDSDJdW09IXQ==

>  <s_epik_cmdline>  (357) 
J2VwaWtfcHl0aG9uJywgJy1waHQnLCAnMi4wJywgJy1waCcsICc3LjAnLCAnLXRuJywgJzgnLCAnLW1hJywgJzIwMCcsICctaW1hZScsICc8aW5maWxlLm1hZT4nLCAnLW9tYWUnLCAnPG91dGZpbGUubWFlPic=

>  <r_lp_tautomer_probability>  (357) 
1

>  <r_epik_Ionization_Penalty>  (357) 
3.54457e-07

>  <r_epik_Ionization_Penalty_Charging>  (357) 
0

>  <r_epik_Ionization_Penalty_Neutral>  (357) 
3.54457e-07

>  <r_epik_State_Penalty>  (357) 
-0

>  <r_epik_Charging_Adjusted_Penalty>  (357) 
0

>  <i_epik_Tot_Q>  (357) 
0

>  <i_epik_Tot_abs_Q>  (357) 
0

>  <s_lp_Force_Field>  (357) 
OPLS3e

>  <r_lp_Energy>  (357) 
45.1136

>  <b_lp_Chiralities_Consistent>  (357) 
1

>  <s_lp_Variant>  (357) 
109:0-1

>  <s_i_glide_gridfile>  (357) 
pfpi4k_grid

>  <i_i_glide_lignum>  (357) 
30

>  <i_i_glide_rotatable_bonds>  (357) 
3

>  <r_i_docking_score>  (357) 
-3.32993

>  <r_i_glide_ligand_efficiency>  (357) 
-0.110998

>  <r_i_glide_ligand_efficiency_sa>  (357) 
-0.344895

>  <r_i_glide_ligand_efficiency_ln>  (357) 
-0.756596

>  <r_i_glide_gscore>  (357) 
-3.32993

>  <r_i_glide_lipo>  (357) 
-0.439919

>  <r_i_glide_hbond>  (357) 
-0.227021

>  <r_i_glide_metal>  (357) 
-0

>  <r_i_glide_rewards>  (357) 
-0.660826

>  <r_i_glide_evdw>  (357) 
-33.5094

>  <r_i_glide_ecoul>  (357) 
-3.63243

>  <r_i_glide_erotb>  (357) 
0.235816

>  <r_i_glide_esite>  (357) 
-0.017645

>  <r_i_glide_emodel>  (357) 
-42.6341

>  <r_i_glide_energy>  (357) 
-37.1418

>  <r_i_glide_einternal>  (357) 
0.826296

>  <r_i_glide_intrahb_reward>  (357) 
-0

>  <i_i_glide_confnum>  (357) 
2

>  <i_i_glide_posenum>  (357) 
6

>  <r_i_glide_eff_state_penalty>  (357) 
0

>  <ligand_id>  (357) 
109

>  <original_smiles>  (357) 
CC12CCC(=O)CC1CCC1C3CC(=O)C(=CC45C(CO)CC4C5(C)C)C3=CCC12

>  <smiles>  (357) 
[H]OC([H])([H])C1([H])C([H])([H])C2([H])C1(C([H])=C1C(=O)C([H])([H])C3([H])C1=C([H])C([H])([H])C1([H])C3([H])C([H])([H])C([H])([H])C3([H])C([H])([H])C(=O)C([H])([H])C([H])([H])C31C([H])([H])[H])C2(C([H])([H])[H])C([H])([H])[H]

$$$$
109:0:2
     RDKit          3D

 66 71  0  0  1  0  0  0  0  0999 V2000
   -1.6953    2.3759    3.5858 C   0  0  0  0  0  0  0  0  0  0  0  0
   -0.5347    1.8553    4.4710 C   0  0  1  0  0  0  0  0  0  0  0  0
    0.2101    3.0845    5.0842 C   0  0  0  0  0  0  0  0  0  0  0  0
   -0.6820    3.9473    5.9957 C   0  0  0  0  0  0  0  0  0  0  0  0
   -1.3730    3.1098    7.0740 C   0  0  0  0  0  0  0  0  0  0  0  0
   -1.4415    3.4810    8.2466 O   0  0  0  0  0  0  0  0  0  0  0  0
   -2.0185    1.7981    6.6228 C   0  0  0  0  0  0  0  0  0  0  0  0
   -1.1296    0.9834    5.6414 C   0  0  2  0  0  0  0  0  0  0  0  0
   -0.0424    0.2203    6.4335 C   0  0  0  0  0  0  0  0  0  0  0  0
    0.8361   -0.6305    5.5211 C   0  0  0  0  0  0  0  0  0  0  0  0
    1.4970    0.2148    4.4101 C   0  0  1  0  0  0  0  0  0  0  0  0
    2.5280   -0.5785    3.5598 C   0  0  1  0  0  0  0  0  0  0  0  0
    2.4103   -2.1145    3.5988 C   0  0  0  0  0  0  0  0  0  0  0  0
    3.1243   -2.5533    2.3015 C   0  0  0  0  0  0  0  0  0  0  0  0
    3.4964   -3.7043    2.0999 O   0  0  0  0  0  0  0  0  0  0  0  0
    3.1750   -1.4097    1.3790 C   0  0  0  0  0  0  0  0  0  0  0  0
    3.7087   -1.4159    0.1087 C   0  0  0  0  0  0  0  0  0  0  0  0
    4.4305   -2.5579   -0.5905 C   0  0  1  0  0  0  0  0  0  0  0  0
    3.8403   -3.2464   -1.8352 C   0  0  1  0  0  0  0  0  0  0  0  0
    2.6878   -2.6241   -2.5958 C   0  0  0  0  0  0  0  0  0  0  0  0
    2.9738   -1.2851   -3.0031 O   0  0  0  0  0  0  0  0  0  0  0  0
    5.2082   -3.2455   -2.5212 C   0  0  0  0  0  0  0  0  0  0  0  0
    5.7598   -2.5412   -1.3032 C   0  0  2  0  0  0  0  0  0  0  0  0
    5.6736   -3.1381    0.0752 C   0  0  0  0  0  0  0  0  0  0  0  0
    6.4166   -2.4101    1.1833 C   0  0  0  0  0  0  0  0  0  0  0  0
    5.8501   -4.6593    0.2423 C   0  0  0  0  0  0  0  0  0  0  0  0
    2.5401   -0.3178    2.0826 C   0  0  0  0  0  0  0  0  0  0  0  0
    1.8992    0.7519    1.5446 C   0  0  0  0  0  0  0  0  0  0  0  0
    1.0442    1.6880    2.3730 C   0  0  0  0  0  0  0  0  0  0  0  0
    0.4102    0.9605    3.5748 C   0  0  2  0  0  0  0  0  0  0  0  0
   -1.3331    3.1154    2.8760 H   0  0  0  0  0  0  0  0  0  0  0  0
   -2.4881    2.8480    4.1609 H   0  0  0  0  0  0  0  0  0  0  0  0
   -2.1465    1.5608    3.0230 H   0  0  0  0  0  0  0  0  0  0  0  0
    1.0524    2.7549    5.6911 H   0  0  0  0  0  0  0  0  0  0  0  0
    0.6253    3.7173    4.3015 H   0  0  0  0  0  0  0  0  0  0  0  0
   -0.1008    4.7333    6.4761 H   0  0  0  0  0  0  0  0  0  0  0  0
   -1.4625    4.4373    5.4135 H   0  0  0  0  0  0  0  0  0  0  0  0
   -2.2690    1.2090    7.5045 H   0  0  0  0  0  0  0  0  0  0  0  0
   -2.9647    2.0729    6.1626 H   0  0  0  0  0  0  0  0  0  0  0  0
   -1.7876    0.2323    5.1960 H   0  0  0  0  0  0  0  0  0  0  0  0
    0.5868    0.9130    6.9917 H   0  0  0  0  0  0  0  0  0  0  0  0
   -0.5139   -0.4294    7.1692 H   0  0  0  0  0  0  0  0  0  0  0  0
    1.6030   -1.1189    6.1202 H   0  0  0  0  0  0  0  0  0  0  0  0
    0.2164   -1.4174    5.0869 H   0  0  0  0  0  0  0  0  0  0  0  0
    2.0900    0.9800    4.9174 H   0  0  0  0  0  0  0  0  0  0  0  0
    3.5166   -0.3049    3.9516 H   0  0  0  0  0  0  0  0  0  0  0  0
    2.9231   -2.5561    4.4313 H   0  0  0  0  0  0  0  0  0  0  0  0
    1.3851   -2.4911    3.5420 H   0  0  0  0  0  0  0  0  0  0  0  0
    3.6996   -0.5432   -0.5146 H   0  0  0  0  0  0  0  0  0  0  0  0
    3.5713   -4.2633   -1.5901 H   0  0  0  0  0  0  0  0  0  0  0  0
    2.4642   -3.1940   -3.5014 H   0  0  0  0  0  0  0  0  0  0  0  0
    1.7614   -2.6467   -2.0090 H   0  0  0  0  0  0  0  0  0  0  0  0
    2.5925   -0.7128   -2.3619 H   0  0  0  0  0  0  0  0  0  0  0  0
    5.5708   -4.2547   -2.6933 H   0  0  0  0  0  0  0  0  0  0  0  0
    5.2767   -2.6546   -3.4422 H   0  0  0  0  0  0  0  0  0  0  0  0
    6.2350   -1.5582   -1.4800 H   0  0  0  0  0  0  0  0  0  0  0  0
    7.4917   -2.6655    1.1840 H   0  0  0  0  0  0  0  0  0  0  0  0
    5.9654   -2.6277    2.1673 H   0  0  0  0  0  0  0  0  0  0  0  0
    6.3698   -1.3223    1.0006 H   0  0  0  0  0  0  0  0  0  0  0  0
    6.9183   -4.9255    0.2443 H   0  0  0  0  0  0  0  0  0  0  0  0
    5.3935   -5.1432   -0.6104 H   0  0  0  0  0  0  0  0  0  0  0  0
    5.3499   -4.9977    1.1588 H   0  0  0  0  0  0  0  0  0  0  0  0
    1.8262    0.8518    0.4968 H   0  0  0  0  0  0  0  0  0  0  0  0
    1.6675    2.5221    2.6666 H   0  0  0  0  0  0  0  0  0  0  0  0
    0.2666    2.0538    1.7078 H   0  0  0  0  0  0  0  0  0  0  0  0
   -0.2375    0.1794    3.1565 H   0  0  0  0  0  0  0  0  0  0  0  0
  2  1  1  6
  1 31  1  0
  1 32  1  0
  1 33  1  0
  2  8  1  0
  2 30  1  0
  2  3  1  0
  3  4  1  0
  3 34  1  0
  3 35  1  0
  4  5  1  0
  4 36  1  0
  4 37  1  0
  5  6  2  0
  5  7  1  0
  7  8  1  0
  7 38  1  0
  7 39  1  0
  8  9  1  0
  8 40  1  6
  9 10  1  0
  9 41  1  0
  9 42  1  0
 10 11  1  0
 10 43  1  0
 10 44  1  0
 11 30  1  0
 11 12  1  0
 11 45  1  1
 12 27  1  0
 12 13  1  0
 12 46  1  1
 13 14  1  0
 13 47  1  0
 13 48  1  0
 14 15  2  0
 14 16  1  0
 16 17  2  3
 16 27  1  0
 17 18  1  0
 17 49  1  0
 18 23  1  0
 18 24  1  1
 18 19  1  0
 19 20  1  0
 19 22  1  0
 19 50  1  1
 20 21  1  0
 20 51  1  0
 20 52  1  0
 21 53  1  0
 22 23  1  0
 22 54  1  0
 22 55  1  0
 23 24  1  0
 23 56  1  6
 24 25  1  0
 24 26  1  0
 25 57  1  0
 25 58  1  0
 25 59  1  0
 26 60  1  0
 26 61  1  0
 26 62  1  0
 27 28  2  0
 28 29  1  0
 28 63  1  0
 29 30  1  0
 29 64  1  0
 29 65  1  0
 30 66  1  6
M  END
>  <i_m_ct_stereo_status>  (358) 
1

>  <s_m_source_file>  (358) 
/var/tmp/pbs.5076255.sched01/tmpmzi298dc/117y2go66iu.sdf

>  <i_m_source_file_index>  (358) 
30

>  <i_lp_mmshare_version>  (358) 
48012

>  <i_f3d_flags>  (358) 
0

>  <s_epik_input>  (358) 
W0NIMl0xW0NIMl1DKD1PKVtDSDJdW0NAQEhdKFtDQEBdMTJbQ0gzXSlbQ0gyXVtDSDJdW0NASF0zW0NAQEhdNEMoPVtDSF1bQ0gyXVtDQEhdMjMpQyhcQyg9TylbQ0gyXTQpPVtDSF1cW0NAXTU2W0NAQEhdKEM2KFtDSDNdKVtDSDNdKVtDSDJdW0NAQEhdNVtDSDJdW09IXQ==

>  <s_epik_cmdline>  (358) 
J2VwaWtfcHl0aG9uJywgJy1waHQnLCAnMi4wJywgJy1waCcsICc3LjAnLCAnLXRuJywgJzgnLCAnLW1hJywgJzIwMCcsICctaW1hZScsICc8aW5maWxlLm1hZT4nLCAnLW9tYWUnLCAnPG91dGZpbGUubWFlPic=

>  <r_lp_tautomer_probability>  (358) 
1

>  <r_epik_Ionization_Penalty>  (358) 
3.54457e-07

>  <r_epik_Ionization_Penalty_Charging>  (358) 
0

>  <r_epik_Ionization_Penalty_Neutral>  (358) 
3.54457e-07

>  <r_epik_State_Penalty>  (358) 
-0

>  <r_epik_Charging_Adjusted_Penalty>  (358) 
0

>  <i_epik_Tot_Q>  (358) 
0

>  <i_epik_Tot_abs_Q>  (358) 
0

>  <s_lp_Force_Field>  (358) 
OPLS3e

>  <r_lp_Energy>  (358) 
45.1136

>  <b_lp_Chiralities_Consistent>  (358) 
1

>  <s_lp_Variant>  (358) 
109:0-1

>  <s_i_glide_gridfile>  (358) 
pfpi4k_grid

>  <i_i_glide_lignum>  (358) 
30

>  <i_i_glide_rotatable_bonds>  (358) 
3

>  <r_i_docking_score>  (358) 
-2.7321

>  <r_i_glide_ligand_efficiency>  (358) 
-0.0910699

>  <r_i_glide_ligand_efficiency_sa>  (358) 
-0.282975

>  <r_i_glide_ligand_efficiency_ln>  (358) 
-0.620762

>  <r_i_glide_gscore>  (358) 
-2.7321

>  <r_i_glide_lipo>  (358) 
-0.425205

>  <r_i_glide_hbond>  (358) 
-0.00466447

>  <r_i_glide_metal>  (358) 
-0

>  <r_i_glide_rewards>  (358) 
-0.658258

>  <r_i_glide_evdw>  (358) 
-32.3287

>  <r_i_glide_ecoul>  (358) 
-1.74952

>  <r_i_glide_erotb>  (358) 
0.235816

>  <r_i_glide_esite>  (358) 
-0.000923469

>  <r_i_glide_emodel>  (358) 
-36.8244

>  <r_i_glide_energy>  (358) 
-34.0782

>  <r_i_glide_einternal>  (358) 
3.79126

>  <r_i_glide_intrahb_reward>  (358) 
-0

>  <i_i_glide_confnum>  (358) 
6

>  <i_i_glide_posenum>  (358) 
9

>  <r_i_glide_eff_state_penalty>  (358) 
0

>  <ligand_id>  (358) 
109

>  <original_smiles>  (358) 
CC12CCC(=O)CC1CCC1C3CC(=O)C(=CC45C(CO)CC4C5(C)C)C3=CCC12

>  <smiles>  (358) 
[H]OC([H])([H])C1([H])C([H])([H])C2([H])C1(C([H])=C1C(=O)C([H])([H])C3([H])C1=C([H])C([H])([H])C1([H])C3([H])C([H])([H])C([H])([H])C3([H])C([H])([H])C(=O)C([H])([H])C([H])([H])C31C([H])([H])[H])C2(C([H])([H])[H])C([H])([H])[H]

$$$$
109:1:0
     RDKit          3D

 66 71  0  0  1  0  0  0  0  0999 V2000
    3.7088   -1.2628    0.3394 C   0  0  0  0  0  0  0  0  0  0  0  0
    4.0842   -2.7646    0.3100 C   0  0  1  0  0  0  0  0  0  0  0  0
    3.1296   -3.4878   -0.6922 C   0  0  0  0  0  0  0  0  0  0  0  0
    3.2565   -2.9899   -2.1459 C   0  0  0  0  0  0  0  0  0  0  0  0
    4.7072   -3.0343   -2.6168 C   0  0  0  0  0  0  0  0  0  0  0  0
    5.0082   -3.4729   -3.7183 O   0  0  0  0  0  0  0  0  0  0  0  0
    5.7545   -2.4500   -1.6672 C   0  0  0  0  0  0  0  0  0  0  0  0
    5.5592   -2.9054   -0.1977 C   0  0  2  0  0  0  0  0  0  0  0  0
    6.1039   -4.3339   -0.0075 C   0  0  0  0  0  0  0  0  0  0  0  0
    5.9808   -4.8376    1.4313 C   0  0  0  0  0  0  0  0  0  0  0  0
    4.5284   -4.7644    1.9204 C   0  0  1  0  0  0  0  0  0  0  0  0
    4.3278   -5.4135    3.3158 C   0  0  1  0  0  0  0  0  0  0  0  0
    5.5250   -5.5948    4.2695 C   0  0  0  0  0  0  0  0  0  0  0  0
    4.8242   -5.7836    5.6294 C   0  0  0  0  0  0  0  0  0  0  0  0
    5.3797   -6.3278    6.5672 O   0  0  0  0  0  0  0  0  0  0  0  0
    3.4761   -5.1763    5.5921 C   0  0  0  0  0  0  0  0  0  0  0  0
    2.6436   -5.0965    6.6680 C   0  0  0  0  0  0  0  0  0  0  0  0
    1.3173   -4.4120    6.7295 C   0  0  1  0  0  0  0  0  0  0  0  0
    0.1112   -5.0012    5.9963 C   0  0  1  0  0  0  0  0  0  0  0  0
    0.2488   -6.4169    5.4387 C   0  0  0  0  0  0  0  0  0  0  0  0
   -0.9229   -6.6635    4.7003 O   0  0  0  0  0  0  0  0  0  0  0  0
   -0.7453   -4.7725    7.2469 C   0  0  0  0  0  0  0  0  0  0  0  0
    0.4622   -4.2198    7.9703 C   0  0  2  0  0  0  0  0  0  0  0  0
    1.2533   -3.0520    7.4465 C   0  0  0  0  0  0  0  0  0  0  0  0
    2.3988   -2.5276    8.2818 C   0  0  0  0  0  0  0  0  0  0  0  0
    0.5406   -1.9090    6.7667 C   0  0  0  0  0  0  0  0  0  0  0  0
    3.2995   -4.7484    4.2226 C   0  0  0  0  0  0  0  0  0  0  0  0
    2.5228   -3.7383    3.8219 C   0  0  0  0  0  0  0  0  0  0  0  0
    2.5602   -3.2109    2.4059 C   0  0  0  0  0  0  0  0  0  0  0  0
    3.9745   -3.3246    1.7789 C   0  0  2  0  0  0  0  0  0  0  0  0
    2.6381   -1.1293    0.5090 H   0  0  0  0  0  0  0  0  0  0  0  0
    3.9204   -0.7495   -0.5996 H   0  0  0  0  0  0  0  0  0  0  0  0
    4.2424   -0.7276    1.1257 H   0  0  0  0  0  0  0  0  0  0  0  0
    3.3469   -4.5555   -0.7060 H   0  0  0  0  0  0  0  0  0  0  0  0
    2.0852   -3.3979   -0.3897 H   0  0  0  0  0  0  0  0  0  0  0  0
    2.6413   -3.5937   -2.8162 H   0  0  0  0  0  0  0  0  0  0  0  0
    2.8880   -1.9666   -2.2257 H   0  0  0  0  0  0  0  0  0  0  0  0
    6.7486   -2.7246   -2.0233 H   0  0  0  0  0  0  0  0  0  0  0  0
    5.6977   -1.3670   -1.7393 H   0  0  0  0  0  0  0  0  0  0  0  0
    6.1822   -2.2506    0.4131 H   0  0  0  0  0  0  0  0  0  0  0  0
    5.5952   -5.0305   -0.6764 H   0  0  0  0  0  0  0  0  0  0  0  0
    7.1574   -4.3486   -0.2907 H   0  0  0  0  0  0  0  0  0  0  0  0
    6.3519   -5.8624    1.4843 H   0  0  0  0  0  0  0  0  0  0  0  0
    6.6206   -4.2215    2.0633 H   0  0  0  0  0  0  0  0  0  0  0  0
    3.9461   -5.4013    1.2561 H   0  0  0  0  0  0  0  0  0  0  0  0
    3.9308   -6.4139    3.1422 H   0  0  0  0  0  0  0  0  0  0  0  0
    6.1542   -6.4488    4.0166 H   0  0  0  0  0  0  0  0  0  0  0  0
    6.1616   -4.7051    4.3091 H   0  0  0  0  0  0  0  0  0  0  0  0
    2.9905   -5.4995    7.6092 H   0  0  0  0  0  0  0  0  0  0  0  0
   -0.1955   -4.2977    5.2255 H   0  0  0  0  0  0  0  0  0  0  0  0
    1.0939   -6.5168    4.7644 H   0  0  0  0  0  0  0  0  0  0  0  0
    0.3610   -7.1567    6.2298 H   0  0  0  0  0  0  0  0  0  0  0  0
   -0.9520   -7.5855    4.4788 H   0  0  0  0  0  0  0  0  0  0  0  0
   -1.5493   -4.0492    7.0669 H   0  0  0  0  0  0  0  0  0  0  0  0
   -1.1384   -5.6937    7.6820 H   0  0  0  0  0  0  0  0  0  0  0  0
    0.7581   -4.7453    8.8737 H   0  0  0  0  0  0  0  0  0  0  0  0
    2.0370   -1.7979    8.9987 H   0  0  0  0  0  0  0  0  0  0  0  0
    3.1510   -2.0638    7.6515 H   0  0  0  0  0  0  0  0  0  0  0  0
    2.8577   -3.3365    8.8348 H   0  0  0  0  0  0  0  0  0  0  0  0
    0.1629   -1.2005    7.5057 H   0  0  0  0  0  0  0  0  0  0  0  0
   -0.3126   -2.2882    6.1996 H   0  0  0  0  0  0  0  0  0  0  0  0
    1.2101   -1.4047    6.0643 H   0  0  0  0  0  0  0  0  0  0  0  0
    1.8356   -3.2335    4.4945 H   0  0  0  0  0  0  0  0  0  0  0  0
    1.8238   -3.7644    1.8240 H   0  0  0  0  0  0  0  0  0  0  0  0
    2.2554   -2.1674    2.4525 H   0  0  0  0  0  0  0  0  0  0  0  0
    4.6217   -2.6936    2.3925 H   0  0  0  0  0  0  0  0  0  0  0  0
  2  1  1  1
  1 31  1  0
  1 32  1  0
  1 33  1  0
  2  8  1  0
  2 30  1  0
  2  3  1  0
  3  4  1  0
  3 34  1  0
  3 35  1  0
  4  5  1  0
  4 36  1  0
  4 37  1  0
  5  6  2  0
  5  7  1  0
  7  8  1  0
  7 38  1  0
  7 39  1  0
  8  9  1  0
  8 40  1  1
  9 10  1  0
  9 41  1  0
  9 42  1  0
 10 11  1  0
 10 43  1  0
 10 44  1  0
 11 30  1  0
 11 12  1  0
 11 45  1  6
 12 27  1  0
 12 13  1  0
 12 46  1  6
 13 14  1  0
 13 47  1  0
 13 48  1  0
 14 15  2  0
 14 16  1  0
 16 17  2  3
 16 27  1  0
 17 18  1  0
 17 49  1  0
 18 23  1  0
 18 24  1  6
 18 19  1  0
 19 20  1  0
 19 22  1  0
 19 50  1  6
 20 21  1  0
 20 51  1  0
 20 52  1  0
 21 53  1  0
 22 23  1  0
 22 54  1  0
 22 55  1  0
 23 24  1  0
 23 56  1  1
 24 25  1  0
 24 26  1  0
 25 57  1  0
 25 58  1  0
 25 59  1  0
 26 60  1  0
 26 61  1  0
 26 62  1  0
 27 28  2  0
 28 29  1  0
 28 63  1  0
 29 30  1  0
 29 64  1  0
 29 65  1  0
 30 66  1  1
M  END
>  <i_m_ct_stereo_status>  (359) 
1

>  <s_m_source_file>  (359) 
/var/tmp/pbs.5076255.sched01/tmpmzi298dc/117y2go66iu.sdf

>  <i_m_source_file_index>  (359) 
31

>  <i_lp_mmshare_version>  (359) 
48012

>  <i_f3d_flags>  (359) 
0

>  <s_epik_input>  (359) 
W0NIMl0xW0NIMl1DKD1PKVtDSDJdW0NAQEhdKFtDQEBdMTJbQ0gzXSlbQ0gyXVtDSDJdW0NASF0zW0NAQEhdNEMoPVtDSF1bQ0gyXVtDQEhdMjMpQyhcQyg9TylbQ0gyXTQpPVtDSF1cW0NAXTU2W0NAQEhdKEM2KFtDSDNdKVtDSDNdKVtDSDJdW0NAQEhdNVtDSDJdW09IXQ==

>  <s_epik_cmdline>  (359) 
J2VwaWtfcHl0aG9uJywgJy1waHQnLCAnMi4wJywgJy1waCcsICc3LjAnLCAnLXRuJywgJzgnLCAnLW1hJywgJzIwMCcsICctaW1hZScsICc8aW5maWxlLm1hZT4nLCAnLW9tYWUnLCAnPG91dGZpbGUubWFlPic=

>  <r_lp_tautomer_probability>  (359) 
1

>  <r_epik_Ionization_Penalty>  (359) 
3.54457e-07

>  <r_epik_Ionization_Penalty_Charging>  (359) 
0

>  <r_epik_Ionization_Penalty_Neutral>  (359) 
3.54457e-07

>  <r_epik_State_Penalty>  (359) 
-0

>  <r_epik_Charging_Adjusted_Penalty>  (359) 
0

>  <i_epik_Tot_Q>  (359) 
0

>  <i_epik_Tot_abs_Q>  (359) 
0

>  <s_lp_Force_Field>  (359) 
OPLS3e

>  <r_lp_Energy>  (359) 
45.0251

>  <b_lp_Chiralities_Consistent>  (359) 
1

>  <s_lp_Variant>  (359) 
109:0-2

>  <s_i_glide_gridfile>  (359) 
pfpi4k_grid

>  <i_i_glide_lignum>  (359) 
31

>  <i_i_glide_rotatable_bonds>  (359) 
3

>  <r_i_docking_score>  (359) 
-2.52256

>  <r_i_glide_ligand_efficiency>  (359) 
-0.0840854

>  <r_i_glide_ligand_efficiency_sa>  (359) 
-0.261273

>  <r_i_glide_ligand_efficiency_ln>  (359) 
-0.573154

>  <r_i_glide_gscore>  (359) 
-2.52256

>  <r_i_glide_lipo>  (359) 
-0.246546

>  <r_i_glide_hbond>  (359) 
0

>  <r_i_glide_metal>  (359) 
-0

>  <r_i_glide_rewards>  (359) 
-0.755717

>  <r_i_glide_evdw>  (359) 
-27.3448

>  <r_i_glide_ecoul>  (359) 
-2.5925

>  <r_i_glide_erotb>  (359) 
0.235816

>  <r_i_glide_esite>  (359) 
0

>  <r_i_glide_emodel>  (359) 
-33.5776

>  <r_i_glide_energy>  (359) 
-29.9373

>  <r_i_glide_einternal>  (359) 
1.4408

>  <r_i_glide_intrahb_reward>  (359) 
-0

>  <i_i_glide_confnum>  (359) 
1

>  <i_i_glide_posenum>  (359) 
22

>  <r_i_glide_eff_state_penalty>  (359) 
0

>  <ligand_id>  (359) 
109

>  <original_smiles>  (359) 
CC12CCC(=O)CC1CCC1C3CC(=O)C(=CC45C(CO)CC4C5(C)C)C3=CCC12

>  <smiles>  (359) 
[H]OC([H])([H])C1([H])C([H])([H])C2([H])C1(C([H])=C1C(=O)C([H])([H])C3([H])C1=C([H])C([H])([H])C1([H])C3([H])C([H])([H])C([H])([H])C3([H])C([H])([H])C(=O)C([H])([H])C([H])([H])C31C([H])([H])[H])C2(C([H])([H])[H])C([H])([H])[H]

$$$$
109:1:1
     RDKit          3D

 66 71  0  0  1  0  0  0  0  0999 V2000
    3.8278   -1.0674    0.3176 C   0  0  0  0  0  0  0  0  0  0  0  0
    4.0798   -2.6013    0.3188 C   0  0  1  0  0  0  0  0  0  0  0  0
    3.0945   -3.2769   -0.6871 C   0  0  0  0  0  0  0  0  0  0  0  0
    3.2792   -2.8033   -2.1405 C   0  0  0  0  0  0  0  0  0  0  0  0
    4.7283   -2.9742   -2.5831 C   0  0  0  0  0  0  0  0  0  0  0  0
    5.0131   -3.4740   -3.6751 O   0  0  0  0  0  0  0  0  0  0  0  0
    5.8100   -2.4730   -1.6244 C   0  0  0  0  0  0  0  0  0  0  0  0
    5.5481   -2.8850   -0.1503 C   0  0  2  0  0  0  0  0  0  0  0  0
    5.9662   -4.3572    0.0750 C   0  0  0  0  0  0  0  0  0  0  0  0
    5.7725   -4.8120    1.5242 C   0  0  0  0  0  0  0  0  0  0  0  0
    4.3183   -4.6162    1.9823 C   0  0  1  0  0  0  0  0  0  0  0  0
    4.0288   -5.2095    3.3944 C   0  0  1  0  0  0  0  0  0  0  0  0
    5.2041   -5.4699    4.3587 C   0  0  0  0  0  0  0  0  0  0  0  0
    4.4850   -5.5336    5.7097 C   0  0  0  0  0  0  0  0  0  0  0  0
    4.9379   -6.1421    6.6883 O   0  0  0  0  0  0  0  0  0  0  0  0
    3.2267   -4.7868    5.6448 C   0  0  0  0  0  0  0  0  0  0  0  0
    2.4020   -4.6034    6.6959 C   0  0  0  0  0  0  0  0  0  0  0  0
    1.0553   -3.9284    6.8194 C   0  0  1  0  0  0  0  0  0  0  0  0
    0.9115   -2.5846    7.5466 C   0  0  1  0  0  0  0  0  0  0  0  0
    2.1992   -1.7968    7.8189 C   0  0  0  0  0  0  0  0  0  0  0  0
    1.8375   -0.5984    8.4625 O   0  0  0  0  0  0  0  0  0  0  0  0
   -0.0127   -2.1041    6.4238 C   0  0  0  0  0  0  0  0  0  0  0  0
    0.0834   -3.4564    5.7595 C   0  0  2  0  0  0  0  0  0  0  0  0
   -0.2050   -4.7242    6.4945 C   0  0  0  0  0  0  0  0  0  0  0  0
   -0.1028   -6.0350    5.7329 C   0  0  0  0  0  0  0  0  0  0  0  0
   -1.4166   -4.7333    7.4254 C   0  0  0  0  0  0  0  0  0  0  0  0
    3.1123   -4.3636    4.2700 C   0  0  0  0  0  0  0  0  0  0  0  0
    2.4424   -3.2925    3.8268 C   0  0  0  0  0  0  0  0  0  0  0  0
    2.5152   -2.8483    2.3974 C   0  0  0  0  0  0  0  0  0  0  0  0
    3.9088   -3.1235    1.7951 C   0  0  2  0  0  0  0  0  0  0  0  0
    2.7742   -0.8346    0.4719 H   0  0  0  0  0  0  0  0  0  0  0  0
    4.1049   -0.5910   -0.6228 H   0  0  0  0  0  0  0  0  0  0  0  0
    4.3919   -0.5662    1.1055 H   0  0  0  0  0  0  0  0  0  0  0  0
    3.2162   -4.3571   -0.6808 H   0  0  0  0  0  0  0  0  0  0  0  0
    2.0582   -3.0919   -0.4011 H   0  0  0  0  0  0  0  0  0  0  0  0
    2.6244   -3.3599   -2.8117 H   0  0  0  0  0  0  0  0  0  0  0  0
    3.0047   -1.7528   -2.2323 H   0  0  0  0  0  0  0  0  0  0  0  0
    6.7793   -2.8469   -1.9524 H   0  0  0  0  0  0  0  0  0  0  0  0
    5.8501   -1.3888   -1.7089 H   0  0  0  0  0  0  0  0  0  0  0  0
    6.2077   -2.2741    0.4697 H   0  0  0  0  0  0  0  0  0  0  0  0
    5.4075   -5.0214   -0.5853 H   0  0  0  0  0  0  0  0  0  0  0  0
    7.0157   -4.4742   -0.1866 H   0  0  0  0  0  0  0  0  0  0  0  0
    6.0520   -5.8657    1.6169 H   0  0  0  0  0  0  0  0  0  0  0  0
    6.4460   -4.2424    2.1679 H   0  0  0  0  0  0  0  0  0  0  0  0
    3.6911   -5.1990    1.3090 H   0  0  0  0  0  0  0  0  0  0  0  0
    3.5511   -6.1817    3.2331 H   0  0  0  0  0  0  0  0  0  0  0  0
    5.7714   -6.3752    4.1423 H   0  0  0  0  0  0  0  0  0  0  0  0
    5.8994   -4.6305    4.4034 H   0  0  0  0  0  0  0  0  0  0  0  0
    2.7134   -5.0264    7.6317 H   0  0  0  0  0  0  0  0  0  0  0  0
    0.3515   -2.6981    8.4725 H   0  0  0  0  0  0  0  0  0  0  0  0
    2.8809   -2.3474    8.4734 H   0  0  0  0  0  0  0  0  0  0  0  0
    2.7376   -1.5611    6.8961 H   0  0  0  0  0  0  0  0  0  0  0  0
    2.6088   -0.0825    8.6341 H   0  0  0  0  0  0  0  0  0  0  0  0
   -1.0130   -1.8306    6.7588 H   0  0  0  0  0  0  0  0  0  0  0  0
    0.4233   -1.3001    5.8258 H   0  0  0  0  0  0  0  0  0  0  0  0
    0.2548   -3.5235    4.6901 H   0  0  0  0  0  0  0  0  0  0  0  0
   -1.0178   -6.2258    5.1720 H   0  0  0  0  0  0  0  0  0  0  0  0
    0.0945   -6.8730    6.4028 H   0  0  0  0  0  0  0  0  0  0  0  0
    0.7076   -5.9857    5.0108 H   0  0  0  0  0  0  0  0  0  0  0  0
   -2.3262   -4.8998    6.8403 H   0  0  0  0  0  0  0  0  0  0  0  0
   -1.5185   -3.7785    7.9203 H   0  0  0  0  0  0  0  0  0  0  0  0
   -1.3126   -5.5074    8.1903 H   0  0  0  0  0  0  0  0  0  0  0  0
    1.8819   -2.6780    4.4991 H   0  0  0  0  0  0  0  0  0  0  0  0
    1.7382   -3.3511    1.8270 H   0  0  0  0  0  0  0  0  0  0  0  0
    2.2970   -1.7875    2.3938 H   0  0  0  0  0  0  0  0  0  0  0  0
    4.5987   -2.5379    2.4000 H   0  0  0  0  0  0  0  0  0  0  0  0
  2  1  1  1
  1 31  1  0
  1 32  1  0
  1 33  1  0
  2  8  1  0
  2 30  1  0
  2  3  1  0
  3  4  1  0
  3 34  1  0
  3 35  1  0
  4  5  1  0
  4 36  1  0
  4 37  1  0
  5  6  2  0
  5  7  1  0
  7  8  1  0
  7 38  1  0
  7 39  1  0
  8  9  1  0
  8 40  1  1
  9 10  1  0
  9 41  1  0
  9 42  1  0
 10 11  1  0
 10 43  1  0
 10 44  1  0
 11 30  1  0
 11 12  1  0
 11 45  1  6
 12 27  1  0
 12 13  1  0
 12 46  1  6
 13 14  1  0
 13 47  1  0
 13 48  1  0
 14 15  2  0
 14 16  1  0
 16 17  2  3
 16 27  1  0
 17 18  1  0
 17 49  1  0
 18 23  1  0
 18 24  1  1
 18 19  1  0
 19 20  1  0
 19 22  1  0
 19 50  1  1
 20 21  1  0
 20 51  1  0
 20 52  1  0
 21 53  1  0
 22 23  1  0
 22 54  1  0
 22 55  1  0
 23 24  1  0
 23 56  1  6
 24 25  1  0
 24 26  1  0
 25 57  1  0
 25 58  1  0
 25 59  1  0
 26 60  1  0
 26 61  1  0
 26 62  1  0
 27 28  2  0
 28 29  1  0
 28 63  1  0
 29 30  1  0
 29 64  1  0
 29 65  1  0
 30 66  1  1
M  END
>  <i_m_ct_stereo_status>  (360) 
1

>  <s_m_source_file>  (360) 
/var/tmp/pbs.5076255.sched01/tmpmzi298dc/117y2go66iu.sdf

>  <i_m_source_file_index>  (360) 
31

>  <i_lp_mmshare_version>  (360) 
48012

>  <i_f3d_flags>  (360) 
0

>  <s_epik_input>  (360) 
W0NIMl0xW0NIMl1DKD1PKVtDSDJdW0NAQEhdKFtDQEBdMTJbQ0gzXSlbQ0gyXVtDSDJdW0NASF0zW0NAQEhdNEMoPVtDSF1bQ0gyXVtDQEhdMjMpQyhcQyg9TylbQ0gyXTQpPVtDSF1cW0NAXTU2W0NAQEhdKEM2KFtDSDNdKVtDSDNdKVtDSDJdW0NAQEhdNVtDSDJdW09IXQ==

>  <s_epik_cmdline>  (360) 
J2VwaWtfcHl0aG9uJywgJy1waHQnLCAnMi4wJywgJy1waCcsICc3LjAnLCAnLXRuJywgJzgnLCAnLW1hJywgJzIwMCcsICctaW1hZScsICc8aW5maWxlLm1hZT4nLCAnLW9tYWUnLCAnPG91dGZpbGUubWFlPic=

>  <r_lp_tautomer_probability>  (360) 
1

>  <r_epik_Ionization_Penalty>  (360) 
3.54457e-07

>  <r_epik_Ionization_Penalty_Charging>  (360) 
0

>  <r_epik_Ionization_Penalty_Neutral>  (360) 
3.54457e-07

>  <r_epik_State_Penalty>  (360) 
-0

>  <r_epik_Charging_Adjusted_Penalty>  (360) 
0

>  <i_epik_Tot_Q>  (360) 
0

>  <i_epik_Tot_abs_Q>  (360) 
0

>  <s_lp_Force_Field>  (360) 
OPLS3e

>  <r_lp_Energy>  (360) 
45.0251

>  <b_lp_Chiralities_Consistent>  (360) 
1

>  <s_lp_Variant>  (360) 
109:0-2

>  <s_i_glide_gridfile>  (360) 
pfpi4k_grid

>  <i_i_glide_lignum>  (360) 
31

>  <i_i_glide_rotatable_bonds>  (360) 
3

>  <r_i_docking_score>  (360) 
-2.45031

>  <r_i_glide_ligand_efficiency>  (360) 
-0.0816769

>  <r_i_glide_ligand_efficiency_sa>  (360) 
-0.253789

>  <r_i_glide_ligand_efficiency_ln>  (360) 
-0.556736

>  <r_i_glide_gscore>  (360) 
-2.45031

>  <r_i_glide_lipo>  (360) 
-0.271107

>  <r_i_glide_hbond>  (360) 
0

>  <r_i_glide_metal>  (360) 
-0

>  <r_i_glide_rewards>  (360) 
-0.764236

>  <r_i_glide_evdw>  (360) 
-27.7962

>  <r_i_glide_ecoul>  (360) 
-1.73981

>  <r_i_glide_erotb>  (360) 
0.235816

>  <r_i_glide_esite>  (360) 
0

>  <r_i_glide_emodel>  (360) 
-32.6019

>  <r_i_glide_energy>  (360) 
-29.536

>  <r_i_glide_einternal>  (360) 
0.324401

>  <r_i_glide_intrahb_reward>  (360) 
-0

>  <i_i_glide_confnum>  (360) 
1

>  <i_i_glide_posenum>  (360) 
2

>  <r_i_glide_eff_state_penalty>  (360) 
0

>  <ligand_id>  (360) 
109

>  <original_smiles>  (360) 
CC12CCC(=O)CC1CCC1C3CC(=O)C(=CC45C(CO)CC4C5(C)C)C3=CCC12

>  <smiles>  (360) 
[H]OC([H])([H])C1([H])C([H])([H])C2([H])C1(C([H])=C1C(=O)C([H])([H])C3([H])C1=C([H])C([H])([H])C1([H])C3([H])C([H])([H])C([H])([H])C3([H])C([H])([H])C(=O)C([H])([H])C([H])([H])C31C([H])([H])[H])C2(C([H])([H])[H])C([H])([H])[H]

$$$$
109:1:2
     RDKit          3D

 66 71  0  0  1  0  0  0  0  0999 V2000
    3.8425   -1.1014    0.2829 C   0  0  0  0  0  0  0  0  0  0  0  0
    4.0468   -2.6418    0.2563 C   0  0  1  0  0  0  0  0  0  0  0  0
    3.0340   -3.2691   -0.7528 C   0  0  0  0  0  0  0  0  0  0  0  0
    3.2231   -2.7772   -2.2002 C   0  0  0  0  0  0  0  0  0  0  0  0
    4.6625   -2.9825   -2.6585 C   0  0  0  0  0  0  0  0  0  0  0  0
    4.9250   -3.4595   -3.7656 O   0  0  0  0  0  0  0  0  0  0  0  0
    5.7664   -2.5347   -1.6984 C   0  0  0  0  0  0  0  0  0  0  0  0
    5.5014   -2.9625   -0.2290 C   0  0  2  0  0  0  0  0  0  0  0  0
    5.8730   -4.4500   -0.0315 C   0  0  0  0  0  0  0  0  0  0  0  0
    5.6782   -4.9246    1.4103 C   0  0  0  0  0  0  0  0  0  0  0  0
    4.2339   -4.6927    1.8812 C   0  0  1  0  0  0  0  0  0  0  0  0
    3.9374   -5.3032    3.2834 C   0  0  1  0  0  0  0  0  0  0  0  0
    5.1100   -5.6165    4.2359 C   0  0  0  0  0  0  0  0  0  0  0  0
    4.3973   -5.6828    5.5890 C   0  0  0  0  0  0  0  0  0  0  0  0
    4.8390   -6.3180    6.5575 O   0  0  0  0  0  0  0  0  0  0  0  0
    3.1608   -4.9000    5.5461 C   0  0  0  0  0  0  0  0  0  0  0  0
    2.3498   -4.7142    6.6055 C   0  0  0  0  0  0  0  0  0  0  0  0
    1.0272   -3.9958    6.7547 C   0  0  1  0  0  0  0  0  0  0  0  0
    0.9326   -2.6550    7.4967 C   0  0  1  0  0  0  0  0  0  0  0  0
    2.2364   -1.8959    7.7570 C   0  0  0  0  0  0  0  0  0  0  0  0
    2.9535   -2.4864    8.8235 O   0  0  0  0  0  0  0  0  0  0  0  0
    0.0096   -2.1361    6.3913 C   0  0  0  0  0  0  0  0  0  0  0  0
    0.0588   -3.4845    5.7122 C   0  0  2  0  0  0  0  0  0  0  0  0
   -0.2595   -4.7492    6.4371 C   0  0  0  0  0  0  0  0  0  0  0  0
   -0.2060   -6.0546    5.6629 C   0  0  0  0  0  0  0  0  0  0  0  0
   -1.4595   -4.7298    7.3830 C   0  0  0  0  0  0  0  0  0  0  0  0
    3.0511   -4.4464    4.1802 C   0  0  0  0  0  0  0  0  0  0  0  0
    2.4140   -3.3451    3.7642 C   0  0  0  0  0  0  0  0  0  0  0  0
    2.4911   -2.8758    2.3421 C   0  0  0  0  0  0  0  0  0  0  0  0
    3.8709   -3.1847    1.7240 C   0  0  2  0  0  0  0  0  0  0  0  0
    2.7976   -0.8396    0.4486 H   0  0  0  0  0  0  0  0  0  0  0  0
    4.1274   -0.6174   -0.6513 H   0  0  0  0  0  0  0  0  0  0  0  0
    4.4272   -0.6323    1.0756 H   0  0  0  0  0  0  0  0  0  0  0  0
    3.1225   -4.3524   -0.7625 H   0  0  0  0  0  0  0  0  0  0  0  0
    2.0057   -3.0573   -0.4574 H   0  0  0  0  0  0  0  0  0  0  0  0
    2.5466   -3.3015   -2.8764 H   0  0  0  0  0  0  0  0  0  0  0  0
    2.9813   -1.7169   -2.2728 H   0  0  0  0  0  0  0  0  0  0  0  0
    6.7222   -2.9320   -2.0393 H   0  0  0  0  0  0  0  0  0  0  0  0
    5.8410   -1.4512   -1.7647 H   0  0  0  0  0  0  0  0  0  0  0  0
    6.1846   -2.3838    0.3961 H   0  0  0  0  0  0  0  0  0  0  0  0
    5.2908   -5.0861   -0.7004 H   0  0  0  0  0  0  0  0  0  0  0  0
    6.9168   -4.5942   -0.3023 H   0  0  0  0  0  0  0  0  0  0  0  0
    5.9262   -5.9880    1.4820 H   0  0  0  0  0  0  0  0  0  0  0  0
    6.3737   -4.3879    2.0604 H   0  0  0  0  0  0  0  0  0  0  0  0
    3.5851   -5.2450    1.2025 H   0  0  0  0  0  0  0  0  0  0  0  0
    3.4276   -6.2570    3.1099 H   0  0  0  0  0  0  0  0  0  0  0  0
    5.6469   -6.5348    3.9998 H   0  0  0  0  0  0  0  0  0  0  0  0
    5.8312   -4.7994    4.2898 H   0  0  0  0  0  0  0  0  0  0  0  0
    2.6527   -5.1693    7.5296 H   0  0  0  0  0  0  0  0  0  0  0  0
    0.3716   -2.7490    8.4264 H   0  0  0  0  0  0  0  0  0  0  0  0
    2.8720   -1.8295    6.8703 H   0  0  0  0  0  0  0  0  0  0  0  0
    2.0079   -0.8784    8.0600 H   0  0  0  0  0  0  0  0  0  0  0  0
    3.2374   -3.3503    8.5651 H   0  0  0  0  0  0  0  0  0  0  0  0
   -0.9788   -1.8365    6.7397 H   0  0  0  0  0  0  0  0  0  0  0  0
    0.4650   -1.3409    5.7965 H   0  0  0  0  0  0  0  0  0  0  0  0
    0.2146   -3.5424    4.6363 H   0  0  0  0  0  0  0  0  0  0  0  0
   -1.1330   -6.2151    5.1130 H   0  0  0  0  0  0  0  0  0  0  0  0
   -0.0266   -6.9045    6.3232 H   0  0  0  0  0  0  0  0  0  0  0  0
    0.5965   -6.0225    4.9303 H   0  0  0  0  0  0  0  0  0  0  0  0
   -2.3805   -4.8618    6.8084 H   0  0  0  0  0  0  0  0  0  0  0  0
   -1.5274   -3.7746    7.8886 H   0  0  0  0  0  0  0  0  0  0  0  0
   -1.3710   -5.5118    8.1391 H   0  0  0  0  0  0  0  0  0  0  0  0
    1.8760   -2.7271    4.4509 H   0  0  0  0  0  0  0  0  0  0  0  0
    1.6953   -3.3440    1.7685 H   0  0  0  0  0  0  0  0  0  0  0  0
    2.3062   -1.8090    2.3586 H   0  0  0  0  0  0  0  0  0  0  0  0
    4.5836   -2.6325    2.3342 H   0  0  0  0  0  0  0  0  0  0  0  0
  2  1  1  1
  1 31  1  0
  1 32  1  0
  1 33  1  0
  2  8  1  0
  2 30  1  0
  2  3  1  0
  3  4  1  0
  3 34  1  0
  3 35  1  0
  4  5  1  0
  4 36  1  0
  4 37  1  0
  5  6  2  0
  5  7  1  0
  7  8  1  0
  7 38  1  0
  7 39  1  0
  8  9  1  0
  8 40  1  1
  9 10  1  0
  9 41  1  0
  9 42  1  0
 10 11  1  0
 10 43  1  0
 10 44  1  0
 11 30  1  0
 11 12  1  0
 11 45  1  6
 12 27  1  0
 12 13  1  0
 12 46  1  6
 13 14  1  0
 13 47  1  0
 13 48  1  0
 14 15  2  0
 14 16  1  0
 16 17  2  3
 16 27  1  0
 17 18  1  0
 17 49  1  0
 18 23  1  0
 18 24  1  1
 18 19  1  0
 19 20  1  0
 19 22  1  0
 19 50  1  1
 20 21  1  0
 20 51  1  0
 20 52  1  0
 21 53  1  0
 22 23  1  0
 22 54  1  0
 22 55  1  0
 23 24  1  0
 23 56  1  6
 24 25  1  0
 24 26  1  0
 25 57  1  0
 25 58  1  0
 25 59  1  0
 26 60  1  0
 26 61  1  0
 26 62  1  0
 27 28  2  0
 28 29  1  0
 28 63  1  0
 29 30  1  0
 29 64  1  0
 29 65  1  0
 30 66  1  1
M  END
>  <i_m_ct_stereo_status>  (361) 
1

>  <s_m_source_file>  (361) 
/var/tmp/pbs.5076255.sched01/tmpmzi298dc/117y2go66iu.sdf

>  <i_m_source_file_index>  (361) 
31

>  <i_lp_mmshare_version>  (361) 
48012

>  <i_f3d_flags>  (361) 
0

>  <s_epik_input>  (361) 
W0NIMl0xW0NIMl1DKD1PKVtDSDJdW0NAQEhdKFtDQEBdMTJbQ0gzXSlbQ0gyXVtDSDJdW0NASF0zW0NAQEhdNEMoPVtDSF1bQ0gyXVtDQEhdMjMpQyhcQyg9TylbQ0gyXTQpPVtDSF1cW0NAXTU2W0NAQEhdKEM2KFtDSDNdKVtDSDNdKVtDSDJdW0NAQEhdNVtDSDJdW09IXQ==

>  <s_epik_cmdline>  (361) 
J2VwaWtfcHl0aG9uJywgJy1waHQnLCAnMi4wJywgJy1waCcsICc3LjAnLCAnLXRuJywgJzgnLCAnLW1hJywgJzIwMCcsICctaW1hZScsICc8aW5maWxlLm1hZT4nLCAnLW9tYWUnLCAnPG91dGZpbGUubWFlPic=

>  <r_lp_tautomer_probability>  (361) 
1

>  <r_epik_Ionization_Penalty>  (361) 
3.54457e-07

>  <r_epik_Ionization_Penalty_Charging>  (361) 
0

>  <r_epik_Ionization_Penalty_Neutral>  (361) 
3.54457e-07

>  <r_epik_State_Penalty>  (361) 
-0

>  <r_epik_Charging_Adjusted_Penalty>  (361) 
0

>  <i_epik_Tot_Q>  (361) 
0

>  <i_epik_Tot_abs_Q>  (361) 
0

>  <s_lp_Force_Field>  (361) 
OPLS3e

>  <r_lp_Energy>  (361) 
45.0251

>  <b_lp_Chiralities_Consistent>  (361) 
1

>  <s_lp_Variant>  (361) 
109:0-2

>  <s_i_glide_gridfile>  (361) 
pfpi4k_grid

>  <i_i_glide_lignum>  (361) 
31

>  <i_i_glide_rotatable_bonds>  (361) 
3

>  <r_i_docking_score>  (361) 
-2.39247

>  <r_i_glide_ligand_efficiency>  (361) 
-0.0797488

>  <r_i_glide_ligand_efficiency_sa>  (361) 
-0.247798

>  <r_i_glide_ligand_efficiency_ln>  (361) 
-0.543594

>  <r_i_glide_gscore>  (361) 
-2.39247

>  <r_i_glide_lipo>  (361) 
-0.26365

>  <r_i_glide_hbond>  (361) 
0

>  <r_i_glide_metal>  (361) 
-0

>  <r_i_glide_rewards>  (361) 
-0.752456

>  <r_i_glide_evdw>  (361) 
-27.4626

>  <r_i_glide_ecoul>  (361) 
-1.59365

>  <r_i_glide_erotb>  (361) 
0.235816

>  <r_i_glide_esite>  (361) 
0

>  <r_i_glide_emodel>  (361) 
-32.3146

>  <r_i_glide_energy>  (361) 
-29.0562

>  <r_i_glide_einternal>  (361) 
0.167374

>  <r_i_glide_intrahb_reward>  (361) 
-0

>  <i_i_glide_confnum>  (361) 
4

>  <i_i_glide_posenum>  (361) 
11

>  <r_i_glide_eff_state_penalty>  (361) 
0

>  <ligand_id>  (361) 
109

>  <original_smiles>  (361) 
CC12CCC(=O)CC1CCC1C3CC(=O)C(=CC45C(CO)CC4C5(C)C)C3=CCC12

>  <smiles>  (361) 
[H]OC([H])([H])C1([H])C([H])([H])C2([H])C1(C([H])=C1C(=O)C([H])([H])C3([H])C1=C([H])C([H])([H])C1([H])C3([H])C([H])([H])C([H])([H])C3([H])C([H])([H])C(=O)C([H])([H])C([H])([H])C31C([H])([H])[H])C2(C([H])([H])[H])C([H])([H])[H]

$$$$
110:0:0
     RDKit          3D

 22 25  0  0  1  0  0  0  0  0999 V2000
    4.7963   -2.5252    2.1725 F   0  0  0  0  0  0  0  0  0  0  0  0
    4.0443   -1.8006    1.3410 C   0  0  1  0  0  0  0  0  0  0  0  0
    4.9354   -0.9648    0.4418 C   0  0  0  0  0  0  0  0  0  0  0  0
    5.4535   -1.5776   -0.6252 C   0  0  0  0  0  0  0  0  0  0  0  0
    5.3118   -3.0794   -0.8155 C   0  0  1  0  0  0  0  0  0  0  0  0
    3.8128   -3.2973   -0.7972 C   0  0  1  0  0  0  0  0  0  0  0  0
    3.1489   -2.7599    0.5026 C   0  0  0  0  0  0  0  0  0  0  0  0
    3.6592   -2.4406   -2.0616 C   0  0  2  0  0  0  0  0  0  0  0  0
    4.4633   -3.0233   -3.2427 C   0  0  0  0  0  0  0  0  0  0  0  0
    5.6102   -2.7137   -2.2719 C   0  0  1  0  0  0  0  0  0  0  0  0
    4.8271   -1.4350   -1.9916 C   0  0  2  0  0  0  0  0  0  0  0  0
    3.4375   -1.1583    1.9765 H   0  0  0  0  0  0  0  0  0  0  0  0
    4.6148    0.0668    0.3285 H   0  0  0  0  0  0  0  0  0  0  0  0
    5.9755   -3.7831   -0.3088 H   0  0  0  0  0  0  0  0  0  0  0  0
    3.5344   -4.3372   -0.9955 H   0  0  0  0  0  0  0  0  0  0  0  0
    2.8630   -3.6050    1.1253 H   0  0  0  0  0  0  0  0  0  0  0  0
    2.2202   -2.2609    0.2371 H   0  0  0  0  0  0  0  0  0  0  0  0
    2.6839   -2.0066   -2.3065 H   0  0  0  0  0  0  0  0  0  0  0  0
    4.2874   -4.0900   -3.3985 H   0  0  0  0  0  0  0  0  0  0  0  0
    4.4550   -2.4452   -4.1677 H   0  0  0  0  0  0  0  0  0  0  0  0
    6.6330   -2.5974   -2.6289 H   0  0  0  0  0  0  0  0  0  0  0  0
    4.9684   -0.6354   -2.7137 H   0  0  0  0  0  0  0  0  0  0  0  0
  1  2  1  0
  2  7  1  0
  2  3  1  0
  2 12  1  1
  3  4  2  0
  3 13  1  0
  4 11  1  0
  4  5  1  0
  5 10  1  0
  5  6  1  0
  5 14  1  1
  6  7  1  0
  6  8  1  0
  6 15  1  6
  7 16  1  0
  7 17  1  0
  8 11  1  0
  8  9  1  0
  8 18  1  6
  9 10  1  0
  9 19  1  0
  9 20  1  0
 10 11  1  0
 10 21  1  6
 11 22  1  6
M  END
>  <i_m_ct_stereo_status>  (362) 
1

>  <s_m_source_file>  (362) 
/var/tmp/pbs.5076255.sched01/tmpmzi298dc/117y2go66iu.sdf

>  <i_m_source_file_index>  (362) 
32

>  <i_lp_mmshare_version>  (362) 
48012

>  <i_f3d_flags>  (362) 
0

>  <s_epik_input>  (362) 
RltDQEBIXShbQ0hdPTEpW0NIMl1bQ0BIXShbQ0BASF0yQzEzKVtDQEhdNFtDQEBIXTNbQ0BASF0yW0NIMl00

>  <s_epik_cmdline>  (362) 
J2VwaWtfcHl0aG9uJywgJy1waHQnLCAnMi4wJywgJy1waCcsICc3LjAnLCAnLXRuJywgJzgnLCAnLW1hJywgJzIwMCcsICctaW1hZScsICc8aW5maWxlLm1hZT4nLCAnLW9tYWUnLCAnPG91dGZpbGUubWFlPic=

>  <r_lp_tautomer_probability>  (362) 
1

>  <r_epik_Ionization_Penalty>  (362) 
0

>  <r_epik_Ionization_Penalty_Charging>  (362) 
0

>  <r_epik_Ionization_Penalty_Neutral>  (362) 
0

>  <r_epik_State_Penalty>  (362) 
-0

>  <r_epik_Charging_Adjusted_Penalty>  (362) 
0

>  <i_epik_Tot_Q>  (362) 
0

>  <i_epik_Tot_abs_Q>  (362) 
0

>  <s_lp_Force_Field>  (362) 
OPLS3e

>  <r_lp_Energy>  (362) 
77.1655

>  <b_lp_Chiralities_Consistent>  (362) 
1

>  <s_lp_Variant>  (362) 
110:0-1

>  <s_i_glide_gridfile>  (362) 
pfpi4k_grid

>  <i_i_glide_lignum>  (362) 
32

>  <i_i_glide_rotatable_bonds>  (362) 
0

>  <r_i_docking_score>  (362) 
-3.67579

>  <r_i_glide_ligand_efficiency>  (362) 
-0.334163

>  <r_i_glide_ligand_efficiency_sa>  (362) 
-0.743172

>  <r_i_glide_ligand_efficiency_ln>  (362) 
-1.08179

>  <r_i_glide_gscore>  (362) 
-3.67579

>  <r_i_glide_lipo>  (362) 
-0.382931

>  <r_i_glide_hbond>  (362) 
0

>  <r_i_glide_metal>  (362) 
-0

>  <r_i_glide_rewards>  (362) 
-2.30387

>  <r_i_glide_evdw>  (362) 
-16.4788

>  <r_i_glide_ecoul>  (362) 
-1.10036

>  <r_i_glide_erotb>  (362) 
0

>  <r_i_glide_esite>  (362) 
0

>  <r_i_glide_emodel>  (362) 
-21.6252

>  <r_i_glide_energy>  (362) 
-17.5792

>  <r_i_glide_einternal>  (362) 
0

>  <r_i_glide_intrahb_reward>  (362) 
-0

>  <i_i_glide_confnum>  (362) 
2

>  <i_i_glide_posenum>  (362) 
11

>  <r_i_glide_eff_state_penalty>  (362) 
0

>  <ligand_id>  (362) 
110

>  <original_smiles>  (362) 
FC1C=C2C3C(C1)C1CC3C21

>  <smiles>  (362) 
[H]C1=C2C3([H])C4([H])C([H])([H])C([H])(C24[H])C3([H])C([H])([H])C1([H])F

$$$$
110:0:1
     RDKit          3D

 22 25  0  0  1  0  0  0  0  0999 V2000
    4.8812   -4.6636   -1.0303 F   0  0  0  0  0  0  0  0  0  0  0  0
    4.4100   -3.4878   -0.6120 C   0  0  1  0  0  0  0  0  0  0  0  0
    5.3295   -2.3829   -1.0753 C   0  0  0  0  0  0  0  0  0  0  0  0
    5.1603   -1.9699   -2.3437 C   0  0  0  0  0  0  0  0  0  0  0  0
    4.2261   -2.6942   -3.3031 C   0  0  1  0  0  0  0  0  0  0  0  0
    2.8988   -2.6478   -2.5940 C   0  0  1  0  0  0  0  0  0  0  0  0
    2.9697   -3.2721   -1.1685 C   0  0  0  0  0  0  0  0  0  0  0  0
    2.9213   -1.1108   -2.6756 C   0  0  2  0  0  0  0  0  0  0  0  0
    2.9648   -0.5937   -4.1178 C   0  0  0  0  0  0  0  0  0  0  0  0
    4.2724   -1.3410   -4.0489 C   0  0  1  0  0  0  0  0  0  0  0  0
    4.3858   -0.7241   -2.6551 C   0  0  2  0  0  0  0  0  0  0  0  0
    4.4058   -3.5501    0.4774 H   0  0  0  0  0  0  0  0  0  0  0  0
    5.5639   -1.6437   -0.3232 H   0  0  0  0  0  0  0  0  0  0  0  0
    4.5275   -3.5948   -3.8439 H   0  0  0  0  0  0  0  0  0  0  0  0
    2.0700   -3.0581   -3.1766 H   0  0  0  0  0  0  0  0  0  0  0  0
    2.4502   -4.2366   -1.1761 H   0  0  0  0  0  0  0  0  0  0  0  0
    2.3958   -2.6483   -0.4768 H   0  0  0  0  0  0  0  0  0  0  0  0
    2.2976   -0.5166   -2.0249 H   0  0  0  0  0  0  0  0  0  0  0  0
    2.1998   -1.0502   -4.7277 H   0  0  0  0  0  0  0  0  0  0  0  0
    3.0143    0.4906   -4.2307 H   0  0  0  0  0  0  0  0  0  0  0  0
    5.0628   -1.0523   -4.7209 H   0  0  0  0  0  0  0  0  0  0  0  0
    4.7150    0.3214   -2.6458 H   0  0  0  0  0  0  0  0  0  0  0  0
  1  2  1  0
  2  7  1  0
  2  3  1  0
  2 12  1  1
  3  4  2  0
  3 13  1  0
  4 11  1  0
  4  5  1  0
  5 10  1  0
  5  6  1  0
  5 14  1  6
  6  7  1  0
  6  8  1  0
  6 15  1  6
  7 16  1  0
  7 17  1  0
  8 11  1  0
  8  9  1  0
  8 18  1  1
  9 10  1  0
  9 19  1  0
  9 20  1  0
 10 11  1  0
 10 21  1  6
 11 22  1  6
M  END
>  <i_m_ct_stereo_status>  (363) 
1

>  <s_m_source_file>  (363) 
/var/tmp/pbs.5076255.sched01/tmpmzi298dc/117y2go66iu.sdf

>  <i_m_source_file_index>  (363) 
32

>  <i_lp_mmshare_version>  (363) 
48012

>  <i_f3d_flags>  (363) 
0

>  <s_epik_input>  (363) 
RltDQEBIXShbQ0hdPTEpW0NIMl1bQ0BIXShbQ0BASF0yQzEzKVtDQEhdNFtDQEBIXTNbQ0BASF0yW0NIMl00

>  <s_epik_cmdline>  (363) 
J2VwaWtfcHl0aG9uJywgJy1waHQnLCAnMi4wJywgJy1waCcsICc3LjAnLCAnLXRuJywgJzgnLCAnLW1hJywgJzIwMCcsICctaW1hZScsICc8aW5maWxlLm1hZT4nLCAnLW9tYWUnLCAnPG91dGZpbGUubWFlPic=

>  <r_lp_tautomer_probability>  (363) 
1

>  <r_epik_Ionization_Penalty>  (363) 
0

>  <r_epik_Ionization_Penalty_Charging>  (363) 
0

>  <r_epik_Ionization_Penalty_Neutral>  (363) 
0

>  <r_epik_State_Penalty>  (363) 
-0

>  <r_epik_Charging_Adjusted_Penalty>  (363) 
0

>  <i_epik_Tot_Q>  (363) 
0

>  <i_epik_Tot_abs_Q>  (363) 
0

>  <s_lp_Force_Field>  (363) 
OPLS3e

>  <r_lp_Energy>  (363) 
77.1655

>  <b_lp_Chiralities_Consistent>  (363) 
1

>  <s_lp_Variant>  (363) 
110:0-1

>  <s_i_glide_gridfile>  (363) 
pfpi4k_grid

>  <i_i_glide_lignum>  (363) 
32

>  <i_i_glide_rotatable_bonds>  (363) 
0

>  <r_i_docking_score>  (363) 
-3.50616

>  <r_i_glide_ligand_efficiency>  (363) 
-0.318742

>  <r_i_glide_ligand_efficiency_sa>  (363) 
-0.708876

>  <r_i_glide_ligand_efficiency_ln>  (363) 
-1.03186

>  <r_i_glide_gscore>  (363) 
-3.50616

>  <r_i_glide_lipo>  (363) 
-0.51386

>  <r_i_glide_hbond>  (363) 
0

>  <r_i_glide_metal>  (363) 
-0

>  <r_i_glide_rewards>  (363) 
-2.25

>  <r_i_glide_evdw>  (363) 
-12.2218

>  <r_i_glide_ecoul>  (363) 
-0.754828

>  <r_i_glide_erotb>  (363) 
0

>  <r_i_glide_esite>  (363) 
-0.017985

>  <r_i_glide_emodel>  (363) 
-16.7709

>  <r_i_glide_energy>  (363) 
-12.9767

>  <r_i_glide_einternal>  (363) 
0

>  <r_i_glide_intrahb_reward>  (363) 
-0

>  <i_i_glide_confnum>  (363) 
1

>  <i_i_glide_posenum>  (363) 
1

>  <r_i_glide_eff_state_penalty>  (363) 
0

>  <ligand_id>  (363) 
110

>  <original_smiles>  (363) 
FC1C=C2C3C(C1)C1CC3C21

>  <smiles>  (363) 
[H]C1=C2C3([H])C4([H])C([H])([H])C([H])(C24[H])C3([H])C([H])([H])C1([H])F

$$$$
111:0:0
     RDKit          3D

 67 72  0  0  1  0  0  0  0  0999 V2000
    5.0912   -3.8609   -1.8098 C   0  0  0  0  0  0  0  0  0  0  0  0
    5.4987   -3.1119   -0.6395 N   0  0  0  0  0  0  0  0  0  0  0  0
    6.6670   -2.4343   -0.5620 N   0  0  0  0  0  0  0  0  0  0  0  0
    6.6523   -1.8444    0.5887 N   0  0  0  0  0  0  0  0  0  0  0  0
    5.4655   -2.1866    1.1799 C   0  0  0  0  0  0  0  0  0  0  0  0
    5.0185   -1.6683    2.5259 C   0  0  2  0  0  0  0  0  0  0  0  0
    4.7015   -2.7888    3.5161 C   0  0  0  0  0  0  0  0  0  0  0  0
    3.2032   -3.0243    3.3331 C   0  0  0  0  0  0  0  0  0  0  0  0
    2.5822   -1.6344    3.0680 C   0  0  1  0  0  0  0  0  0  0  0  0
    1.4029   -1.7790    2.0905 C   0  0  0  0  0  0  0  0  0  0  0  0
    2.1509   -0.9707    4.4041 C   0  0  2  0  0  0  0  0  0  0  0  0
    0.7013   -1.0938    4.8929 C   0  0  0  0  0  0  0  0  0  0  0  0
    0.5850   -0.4209    6.2718 C   0  0  0  0  0  0  0  0  0  0  0  0
    1.0272    1.0802    6.3057 C   0  0  2  0  0  0  0  0  0  0  0  0
    1.0699    1.4646    7.8060 C   0  0  0  0  0  0  0  0  0  0  0  0
    0.0203    2.0235    5.6069 C   0  0  0  0  0  0  0  0  0  0  0  0
   -1.3171    1.8071    5.5872 C   0  0  0  0  0  0  0  0  0  0  0  0
   -2.3605    2.6971    4.9227 C   0  0  0  0  0  0  0  0  0  0  0  0
   -1.7314    3.9068    4.2293 C   0  0  0  0  0  0  0  0  0  0  0  0
   -2.2833    4.4923    3.3021 O   0  0  0  0  0  0  0  0  0  0  0  0
   -0.4191    4.4096    4.8099 C   0  0  0  0  0  0  0  0  0  0  0  0
    0.6036    3.2644    4.9110 C   0  0  1  0  0  0  0  0  0  0  0  0
    1.9004    3.7576    5.5647 C   0  0  0  0  0  0  0  0  0  0  0  0
    2.9866    2.6683    5.5965 C   0  0  1  0  0  0  0  0  0  0  0  0
    3.8436    2.9295    6.6877 O   0  0  0  0  0  0  0  0  0  0  0  0
    2.4614    1.2033    5.6685 C   0  0  2  0  0  0  0  0  0  0  0  0
    2.5287    0.4931    4.2857 C   0  0  1  0  0  0  0  0  0  0  0  0
    3.8985    0.3817    3.6122 C   0  0  0  0  0  0  0  0  0  0  0  0
    3.7620   -0.7381    2.5355 C   0  0  1  0  0  0  0  0  0  0  0  0
    3.5013   -0.0539    1.1647 C   0  0  0  0  0  0  0  0  0  0  0  0
    4.7225   -3.0025    0.4476 N   0  0  0  0  0  0  0  0  0  0  0  0
    5.5363   -3.4301   -2.7084 H   0  0  0  0  0  0  0  0  0  0  0  0
    4.0024   -3.8447   -1.9095 H   0  0  0  0  0  0  0  0  0  0  0  0
    5.4060   -4.8927   -1.7016 H   0  0  0  0  0  0  0  0  0  0  0  0
    5.8682   -1.1042    2.9183 H   0  0  0  0  0  0  0  0  0  0  0  0
    5.3122   -3.6833    3.3781 H   0  0  0  0  0  0  0  0  0  0  0  0
    4.8786   -2.4284    4.5330 H   0  0  0  0  0  0  0  0  0  0  0  0
    3.0626   -3.6718    2.4677 H   0  0  0  0  0  0  0  0  0  0  0  0
    2.7583   -3.5415    4.1845 H   0  0  0  0  0  0  0  0  0  0  0  0
    0.9182   -0.8245    1.8802 H   0  0  0  0  0  0  0  0  0  0  0  0
    0.6506   -2.4443    2.5101 H   0  0  0  0  0  0  0  0  0  0  0  0
    1.7249   -2.2117    1.1421 H   0  0  0  0  0  0  0  0  0  0  0  0
    2.7840   -1.3965    5.1841 H   0  0  0  0  0  0  0  0  0  0  0  0
    0.0066   -0.6261    4.1938 H   0  0  0  0  0  0  0  0  0  0  0  0
    0.4251   -2.1449    4.9729 H   0  0  0  0  0  0  0  0  0  0  0  0
   -0.4152   -0.5639    6.6740 H   0  0  0  0  0  0  0  0  0  0  0  0
    1.2315   -0.9772    6.9504 H   0  0  0  0  0  0  0  0  0  0  0  0
    1.7964    0.8638    8.3514 H   0  0  0  0  0  0  0  0  0  0  0  0
    0.1001    1.3130    8.2807 H   0  0  0  0  0  0  0  0  0  0  0  0
    1.3353    2.5065    7.9718 H   0  0  0  0  0  0  0  0  0  0  0  0
   -1.7411    0.9525    6.0850 H   0  0  0  0  0  0  0  0  0  0  0  0
   -2.9291    2.1219    4.1918 H   0  0  0  0  0  0  0  0  0  0  0  0
   -3.0689    3.0488    5.6718 H   0  0  0  0  0  0  0  0  0  0  0  0
   -0.0400    5.2206    4.1911 H   0  0  0  0  0  0  0  0  0  0  0  0
   -0.6285    4.8239    5.7960 H   0  0  0  0  0  0  0  0  0  0  0  0
    0.8477    2.9660    3.8909 H   0  0  0  0  0  0  0  0  0  0  0  0
    2.2830    4.6240    5.0220 H   0  0  0  0  0  0  0  0  0  0  0  0
    1.6816    4.1251    6.5664 H   0  0  0  0  0  0  0  0  0  0  0  0
    3.5946    2.7895    4.7026 H   0  0  0  0  0  0  0  0  0  0  0  0
    4.5679    2.3218    6.6453 H   0  0  0  0  0  0  0  0  0  0  0  0
    3.1449    0.6467    6.3115 H   0  0  0  0  0  0  0  0  0  0  0  0
    1.8475    0.9776    3.5885 H   0  0  0  0  0  0  0  0  0  0  0  0
    4.1995    1.3320    3.1865 H   0  0  0  0  0  0  0  0  0  0  0  0
    4.6489    0.1206    4.3602 H   0  0  0  0  0  0  0  0  0  0  0  0
    2.6541    0.6312    1.2135 H   0  0  0  0  0  0  0  0  0  0  0  0
    3.2860   -0.7611    0.3637 H   0  0  0  0  0  0  0  0  0  0  0  0
    4.3684    0.5292    0.8489 H   0  0  0  0  0  0  0  0  0  0  0  0
  1  2  1  0
  1 32  1  0
  1 33  1  0
  1 34  1  0
  2 31  1  0
  2  3  1  0
  3  4  2  0
  4  5  1  0
  5  6  1  0
  5 31  2  0
  6 29  1  0
  6  7  1  0
  6 35  1  1
  7  8  1  0
  7 36  1  0
  7 37  1  0
  8  9  1  0
  8 38  1  0
  8 39  1  0
  9 29  1  0
  9 10  1  6
  9 11  1  0
 10 40  1  0
 10 41  1  0
 10 42  1  0
 11 27  1  0
 11 12  1  0
 11 43  1  1
 12 13  1  0
 12 44  1  0
 12 45  1  0
 13 14  1  0
 13 46  1  0
 13 47  1  0
 14 26  1  0
 14 15  1  1
 14 16  1  0
 15 48  1  0
 15 49  1  0
 15 50  1  0
 16 22  1  0
 16 17  2  0
 17 18  1  0
 17 51  1  0
 18 19  1  0
 18 52  1  0
 18 53  1  0
 19 20  2  0
 19 21  1  0
 21 22  1  0
 21 54  1  0
 21 55  1  0
 22 23  1  0
 22 56  1  6
 23 24  1  0
 23 57  1  0
 23 58  1  0
 24 25  1  0
 24 26  1  0
 24 59  1  6
 25 60  1  0
 26 27  1  0
 26 61  1  1
 27 28  1  0
 27 62  1  6
 28 29  1  0
 28 63  1  0
 28 64  1  0
 29 30  1  6
 30 65  1  0
 30 66  1  0
 30 67  1  0
M  END
>  <i_m_ct_stereo_status>  (364) 
1

>  <s_m_source_file>  (364) 
/var/tmp/pbs.5076255.sched01/tmpmzi298dc/117y2go66iu.sdf

>  <i_m_source_file_index>  (364) 
33

>  <i_lp_mmshare_version>  (364) 
48012

>  <i_f3d_flags>  (364) 
0

>  <s_epik_input>  (364) 
W0NIM11uMW5uYyhuMSlbQ0BIXShbQ0gyXVtDSDJdMilbQ0BdMyhbQ0gzXSlbQ0gyXVtDQEBIXShbQ0BASF00W0NAXTIzW0NIM10pW0NAQEhdNVtDQF0oW0NIM10pKFtDSDJdW0NIMl00KUM9NltDQEhdKFtDSDJdW0NASF01W09IXSlbQ0gyXUMoPU8pW0NIMl1bQ0hdNg==

>  <s_epik_cmdline>  (364) 
J2VwaWtfcHl0aG9uJywgJy1waHQnLCAnMi4wJywgJy1waCcsICc3LjAnLCAnLXRuJywgJzgnLCAnLW1hJywgJzIwMCcsICctaW1hZScsICc8aW5maWxlLm1hZT4nLCAnLW9tYWUnLCAnPG91dGZpbGUubWFlPic=

>  <r_lp_tautomer_probability>  (364) 
1

>  <r_epik_Ionization_Penalty>  (364) 
1.85031e-05

>  <r_epik_Ionization_Penalty_Charging>  (364) 
0

>  <r_epik_Ionization_Penalty_Neutral>  (364) 
1.85031e-05

>  <r_epik_State_Penalty>  (364) 
-0

>  <r_epik_Charging_Adjusted_Penalty>  (364) 
0

>  <i_epik_Tot_Q>  (364) 
0

>  <i_epik_Tot_abs_Q>  (364) 
0

>  <s_lp_Force_Field>  (364) 
OPLS3e

>  <r_lp_Energy>  (364) 
44.7746

>  <b_lp_Chiralities_Consistent>  (364) 
1

>  <s_lp_Variant>  (364) 
111:0-1

>  <s_i_glide_gridfile>  (364) 
pfpi4k_grid

>  <i_i_glide_lignum>  (364) 
33

>  <i_i_glide_rotatable_bonds>  (364) 
2

>  <r_i_docking_score>  (364) 
-2.57425

>  <r_i_glide_ligand_efficiency>  (364) 
-0.0830405

>  <r_i_glide_ligand_efficiency_sa>  (364) 
-0.260862

>  <r_i_glide_ligand_efficiency_ln>  (364) 
-0.580573

>  <r_i_glide_gscore>  (364) 
-2.57425

>  <r_i_glide_lipo>  (364) 
-0.1307

>  <r_i_glide_hbond>  (364) 
-0.16

>  <r_i_glide_metal>  (364) 
-0

>  <r_i_glide_rewards>  (364) 
-0.664957

>  <r_i_glide_evdw>  (364) 
-23.3575

>  <r_i_glide_ecoul>  (364) 
-3.1079

>  <r_i_glide_erotb>  (364) 
0.110001

>  <r_i_glide_esite>  (364) 
-0.0945391

>  <r_i_glide_emodel>  (364) 
-30.6385

>  <r_i_glide_energy>  (364) 
-26.4654

>  <r_i_glide_einternal>  (364) 
0.328362

>  <r_i_glide_intrahb_reward>  (364) 
-0

>  <i_i_glide_confnum>  (364) 
3

>  <i_i_glide_posenum>  (364) 
27

>  <r_i_glide_eff_state_penalty>  (364) 
0

>  <ligand_id>  (364) 
111

>  <original_smiles>  (364) 
Cn1nnc(C2CCC3(C)C4CCC5(C)C6=CCC(=O)CC6CC(O)C5C4CC23C)n1

>  <smiles>  (364) 
[H]OC1([H])C([H])([H])C2([H])C(=C([H])C([H])([H])C(=O)C2([H])[H])C2(C([H])([H])[H])C([H])([H])C([H])([H])C3([H])C([H])(C([H])([H])C4(C([H])([H])[H])C([H])(c5nnn(C([H])([H])[H])n5)C([H])([H])C([H])([H])C34C([H])([H])[H])C12[H]

$$$$
111:0:1
     RDKit          3D

 67 72  0  0  1  0  0  0  0  0999 V2000
    4.9783   -3.9484   -1.9124 C   0  0  0  0  0  0  0  0  0  0  0  0
    5.4507   -3.2002   -0.7645 N   0  0  0  0  0  0  0  0  0  0  0  0
    6.6407   -2.5593   -0.7349 N   0  0  0  0  0  0  0  0  0  0  0  0
    6.6753   -1.9395    0.4012 N   0  0  0  0  0  0  0  0  0  0  0  0
    5.4918   -2.2254    1.0274 C   0  0  0  0  0  0  0  0  0  0  0  0
    5.0954   -1.6596    2.3708 C   0  0  2  0  0  0  0  0  0  0  0  0
    4.8821   -2.7391    3.4303 C   0  0  0  0  0  0  0  0  0  0  0  0
    3.3872   -3.0422    3.3457 C   0  0  0  0  0  0  0  0  0  0  0  0
    2.6922   -1.6924    3.0542 C   0  0  1  0  0  0  0  0  0  0  0  0
    1.4618   -1.9316    2.1591 C   0  0  0  0  0  0  0  0  0  0  0  0
    2.3117   -0.9793    4.3802 C   0  0  2  0  0  0  0  0  0  0  0  0
    0.8994   -1.1349    4.9583 C   0  0  0  0  0  0  0  0  0  0  0  0
    0.8355   -0.3959    6.3068 C   0  0  0  0  0  0  0  0  0  0  0  0
    1.2126    1.1224    6.2402 C   0  0  2  0  0  0  0  0  0  0  0  0
    1.3234    1.5834    7.7152 C   0  0  0  0  0  0  0  0  0  0  0  0
    0.1295    1.9888    5.5555 C   0  0  0  0  0  0  0  0  0  0  0  0
   -1.1968    1.7191    5.6268 C   0  0  0  0  0  0  0  0  0  0  0  0
   -2.3114    2.5347    4.9846 C   0  0  0  0  0  0  0  0  0  0  0  0
   -1.7871    3.7390    4.2026 C   0  0  0  0  0  0  0  0  0  0  0  0
   -2.4300    4.2569    3.2948 O   0  0  0  0  0  0  0  0  0  0  0  0
   -0.4597    4.3152    4.6700 C   0  0  0  0  0  0  0  0  0  0  0  0
    0.6129    3.2148    4.7645 C   0  0  1  0  0  0  0  0  0  0  0  0
    1.9227    3.7917    5.3141 C   0  0  0  0  0  0  0  0  0  0  0  0
    3.0586    2.7525    5.3411 C   0  0  1  0  0  0  0  0  0  0  0  0
    3.9549    3.1079    6.3743 O   0  0  0  0  0  0  0  0  0  0  0  0
    2.6025    1.2721    5.5161 C   0  0  2  0  0  0  0  0  0  0  0  0
    2.6189    0.4900    4.1694 C   0  0  1  0  0  0  0  0  0  0  0  0
    3.9474    0.3935    3.4198 C   0  0  0  0  0  0  0  0  0  0  0  0
    3.8012   -0.7800    2.4088 C   0  0  1  0  0  0  0  0  0  0  0  0
    3.4334   -0.1713    1.0239 C   0  0  0  0  0  0  0  0  0  0  0  0
    4.7133   -3.0513    0.3457 N   0  0  0  0  0  0  0  0  0  0  0  0
    5.4222   -3.5599   -2.8299 H   0  0  0  0  0  0  0  0  0  0  0  0
    3.8909   -3.8665   -1.9866 H   0  0  0  0  0  0  0  0  0  0  0  0
    5.2411   -4.9978   -1.7909 H   0  0  0  0  0  0  0  0  0  0  0  0
    5.9395   -1.0439    2.6859 H   0  0  0  0  0  0  0  0  0  0  0  0
    5.5219   -3.6143    3.3009 H   0  0  0  0  0  0  0  0  0  0  0  0
    5.1009   -2.3211    4.4151 H   0  0  0  0  0  0  0  0  0  0  0  0
    3.2289   -3.7372    2.5210 H   0  0  0  0  0  0  0  0  0  0  0  0
    3.0137   -3.5318    4.2452 H   0  0  0  0  0  0  0  0  0  0  0  0
    0.9240   -1.0097    1.9339 H   0  0  0  0  0  0  0  0  0  0  0  0
    0.7674   -2.6144    2.6464 H   0  0  0  0  0  0  0  0  0  0  0  0
    1.7576   -2.3878    1.2136 H   0  0  0  0  0  0  0  0  0  0  0  0
    3.0070   -1.3384    5.1403 H   0  0  0  0  0  0  0  0  0  0  0  0
    0.1465   -0.7305    4.2792 H   0  0  0  0  0  0  0  0  0  0  0  0
    0.6723   -2.1911    5.1036 H   0  0  0  0  0  0  0  0  0  0  0  0
   -0.1323   -0.5599    6.7756 H   0  0  0  0  0  0  0  0  0  0  0  0
    1.5429   -0.8911    6.9717 H   0  0  0  0  0  0  0  0  0  0  0  0
    2.1070    1.0415    8.2453 H   0  0  0  0  0  0  0  0  0  0  0  0
    0.3897    1.4150    8.2534 H   0  0  0  0  0  0  0  0  0  0  0  0
    1.5514    2.6420    7.8146 H   0  0  0  0  0  0  0  0  0  0  0  0
   -1.5538    0.8745    6.1896 H   0  0  0  0  0  0  0  0  0  0  0  0
   -2.8808    1.9024    4.3029 H   0  0  0  0  0  0  0  0  0  0  0  0
   -2.9944    2.8876    5.7576 H   0  0  0  0  0  0  0  0  0  0  0  0
   -0.1502    5.1058    3.9885 H   0  0  0  0  0  0  0  0  0  0  0  0
   -0.6232    4.7686    5.6477 H   0  0  0  0  0  0  0  0  0  0  0  0
    0.8117    2.8719    3.7493 H   0  0  0  0  0  0  0  0  0  0  0  0
    2.2339    4.6436    4.7057 H   0  0  0  0  0  0  0  0  0  0  0  0
    1.7407    4.2024    6.3081 H   0  0  0  0  0  0  0  0  0  0  0  0
    3.6130    2.8501    4.4104 H   0  0  0  0  0  0  0  0  0  0  0  0
    4.2585    3.9903    6.2151 H   0  0  0  0  0  0  0  0  0  0  0  0
    3.3506    0.7817    6.1429 H   0  0  0  0  0  0  0  0  0  0  0  0
    1.8800    0.9115    3.4887 H   0  0  0  0  0  0  0  0  0  0  0  0
    4.1608    1.3291    2.9209 H   0  0  0  0  0  0  0  0  0  0  0  0
    4.7553    0.2115    4.1313 H   0  0  0  0  0  0  0  0  0  0  0  0
    2.5621    0.4824    1.0893 H   0  0  0  0  0  0  0  0  0  0  0  0
    3.1980   -0.9204    0.2695 H   0  0  0  0  0  0  0  0  0  0  0  0
    4.2566    0.4268    0.6302 H   0  0  0  0  0  0  0  0  0  0  0  0
  1  2  1  0
  1 32  1  0
  1 33  1  0
  1 34  1  0
  2 31  1  0
  2  3  1  0
  3  4  2  0
  4  5  1  0
  5  6  1  0
  5 31  2  0
  6 29  1  0
  6  7  1  0
  6 35  1  1
  7  8  1  0
  7 36  1  0
  7 37  1  0
  8  9  1  0
  8 38  1  0
  8 39  1  0
  9 29  1  0
  9 10  1  6
  9 11  1  0
 10 40  1  0
 10 41  1  0
 10 42  1  0
 11 27  1  0
 11 12  1  0
 11 43  1  1
 12 13  1  0
 12 44  1  0
 12 45  1  0
 13 14  1  0
 13 46  1  0
 13 47  1  0
 14 26  1  0
 14 15  1  1
 14 16  1  0
 15 48  1  0
 15 49  1  0
 15 50  1  0
 16 22  1  0
 16 17  2  0
 17 18  1  0
 17 51  1  0
 18 19  1  0
 18 52  1  0
 18 53  1  0
 19 20  2  0
 19 21  1  0
 21 22  1  0
 21 54  1  0
 21 55  1  0
 22 23  1  0
 22 56  1  6
 23 24  1  0
 23 57  1  0
 23 58  1  0
 24 25  1  0
 24 26  1  0
 24 59  1  6
 25 60  1  0
 26 27  1  0
 26 61  1  1
 27 28  1  0
 27 62  1  6
 28 29  1  0
 28 63  1  0
 28 64  1  0
 29 30  1  6
 30 65  1  0
 30 66  1  0
 30 67  1  0
M  END
>  <i_m_ct_stereo_status>  (365) 
1

>  <s_m_source_file>  (365) 
/var/tmp/pbs.5076255.sched01/tmpmzi298dc/117y2go66iu.sdf

>  <i_m_source_file_index>  (365) 
33

>  <i_lp_mmshare_version>  (365) 
48012

>  <i_f3d_flags>  (365) 
0

>  <s_epik_input>  (365) 
W0NIM11uMW5uYyhuMSlbQ0BIXShbQ0gyXVtDSDJdMilbQ0BdMyhbQ0gzXSlbQ0gyXVtDQEBIXShbQ0BASF00W0NAXTIzW0NIM10pW0NAQEhdNVtDQF0oW0NIM10pKFtDSDJdW0NIMl00KUM9NltDQEhdKFtDSDJdW0NASF01W09IXSlbQ0gyXUMoPU8pW0NIMl1bQ0hdNg==

>  <s_epik_cmdline>  (365) 
J2VwaWtfcHl0aG9uJywgJy1waHQnLCAnMi4wJywgJy1waCcsICc3LjAnLCAnLXRuJywgJzgnLCAnLW1hJywgJzIwMCcsICctaW1hZScsICc8aW5maWxlLm1hZT4nLCAnLW9tYWUnLCAnPG91dGZpbGUubWFlPic=

>  <r_lp_tautomer_probability>  (365) 
1

>  <r_epik_Ionization_Penalty>  (365) 
1.85031e-05

>  <r_epik_Ionization_Penalty_Charging>  (365) 
0

>  <r_epik_Ionization_Penalty_Neutral>  (365) 
1.85031e-05

>  <r_epik_State_Penalty>  (365) 
-0

>  <r_epik_Charging_Adjusted_Penalty>  (365) 
0

>  <i_epik_Tot_Q>  (365) 
0

>  <i_epik_Tot_abs_Q>  (365) 
0

>  <s_lp_Force_Field>  (365) 
OPLS3e

>  <r_lp_Energy>  (365) 
44.7746

>  <b_lp_Chiralities_Consistent>  (365) 
1

>  <s_lp_Variant>  (365) 
111:0-1

>  <s_i_glide_gridfile>  (365) 
pfpi4k_grid

>  <i_i_glide_lignum>  (365) 
33

>  <i_i_glide_rotatable_bonds>  (365) 
2

>  <r_i_docking_score>  (365) 
-2.53643

>  <r_i_glide_ligand_efficiency>  (365) 
-0.0818203

>  <r_i_glide_ligand_efficiency_sa>  (365) 
-0.257029

>  <r_i_glide_ligand_efficiency_ln>  (365) 
-0.572042

>  <r_i_glide_gscore>  (365) 
-2.53643

>  <r_i_glide_lipo>  (365) 
-0.151591

>  <r_i_glide_hbond>  (365) 
-0.11455

>  <r_i_glide_metal>  (365) 
-0

>  <r_i_glide_rewards>  (365) 
-0.67668

>  <r_i_glide_evdw>  (365) 
-23.2336

>  <r_i_glide_ecoul>  (365) 
-3.07406

>  <r_i_glide_erotb>  (365) 
0.110001

>  <r_i_glide_esite>  (365) 
-0.0808174

>  <r_i_glide_emodel>  (365) 
-30.3209

>  <r_i_glide_energy>  (365) 
-26.3077

>  <r_i_glide_einternal>  (365) 
0.413558

>  <r_i_glide_intrahb_reward>  (365) 
-0

>  <i_i_glide_confnum>  (365) 
1

>  <i_i_glide_posenum>  (365) 
25

>  <r_i_glide_eff_state_penalty>  (365) 
0

>  <ligand_id>  (365) 
111

>  <original_smiles>  (365) 
Cn1nnc(C2CCC3(C)C4CCC5(C)C6=CCC(=O)CC6CC(O)C5C4CC23C)n1

>  <smiles>  (365) 
[H]OC1([H])C([H])([H])C2([H])C(=C([H])C([H])([H])C(=O)C2([H])[H])C2(C([H])([H])[H])C([H])([H])C([H])([H])C3([H])C([H])(C([H])([H])C4(C([H])([H])[H])C([H])(c5nnn(C([H])([H])[H])n5)C([H])([H])C([H])([H])C34C([H])([H])[H])C12[H]

$$$$
111:0:2
     RDKit          3D

 67 72  0  0  1  0  0  0  0  0999 V2000
    4.7669   -3.8711   -2.8097 C   0  0  0  0  0  0  0  0  0  0  0  0
    5.3708   -3.2329   -1.6588 N   0  0  0  0  0  0  0  0  0  0  0  0
    6.5819   -2.6167   -1.7135 N   0  0  0  0  0  0  0  0  0  0  0  0
    6.7495   -2.0737   -0.5528 N   0  0  0  0  0  0  0  0  0  0  0  0
    5.6186   -2.3888    0.1653 C   0  0  0  0  0  0  0  0  0  0  0  0
    5.3861   -1.9163    1.5828 C   0  0  2  0  0  0  0  0  0  0  0  0
    5.4768   -3.0466    2.6087 C   0  0  0  0  0  0  0  0  0  0  0  0
    4.0373   -3.5277    2.7462 C   0  0  0  0  0  0  0  0  0  0  0  0
    3.1534   -2.2623    2.6449 C   0  0  1  0  0  0  0  0  0  0  0  0
    1.8325   -2.6282    1.9492 C   0  0  0  0  0  0  0  0  0  0  0  0
    2.9147   -1.6497    4.0495 C   0  0  2  0  0  0  0  0  0  0  0  0
    1.6459   -2.0037    4.8331 C   0  0  0  0  0  0  0  0  0  0  0  0
    1.7131   -1.3199    6.2110 C   0  0  0  0  0  0  0  0  0  0  0  0
    1.8953    0.2355    6.1667 C   0  0  2  0  0  0  0  0  0  0  0  0
    2.1903    0.6522    7.6297 C   0  0  0  0  0  0  0  0  0  0  0  0
    0.6171    0.9820    5.7145 C   0  0  0  0  0  0  0  0  0  0  0  0
   -0.6307    0.5444    5.9800 C   0  0  0  0  0  0  0  0  0  0  0  0
   -1.9344    1.2241    5.5792 C   0  0  0  0  0  0  0  0  0  0  0  0
   -1.6861    2.5128    4.7969 C   0  0  0  0  0  0  0  0  0  0  0  0
   -2.5381    2.9868    4.0509 O   0  0  0  0  0  0  0  0  0  0  0  0
   -0.3776    3.2411    5.0644 C   0  0  0  0  0  0  0  0  0  0  0  0
    0.8190    2.2852    4.9273 C   0  0  1  0  0  0  0  0  0  0  0  0
    2.1248    2.9971    5.2915 C   0  0  0  0  0  0  0  0  0  0  0  0
    3.3632    2.1031    5.0779 C   0  0  1  0  0  0  0  0  0  0  0  0
    4.3711    2.5248    5.9712 O   0  0  0  0  0  0  0  0  0  0  0  0
    3.1205    0.5760    5.2468 C   0  0  2  0  0  0  0  0  0  0  0  0
    3.0052   -0.1471    3.8741 C   0  0  1  0  0  0  0  0  0  0  0  0
    4.1911   -0.0458    2.9142 C   0  0  0  0  0  0  0  0  0  0  0  0
    4.0228   -1.1980    1.8811 C   0  0  1  0  0  0  0  0  0  0  0  0
    3.3641   -0.5842    0.6159 C   0  0  0  0  0  0  0  0  0  0  0  0
    4.7880   -3.2073   -0.4521 N   0  0  0  0  0  0  0  0  0  0  0  0
    5.1062   -3.4090   -3.7392 H   0  0  0  0  0  0  0  0  0  0  0  0
    3.6772   -3.7872   -2.7516 H   0  0  0  0  0  0  0  0  0  0  0  0
    5.0269   -4.9311   -2.8173 H   0  0  0  0  0  0  0  0  0  0  0  0
    6.1870   -1.2106    1.8017 H   0  0  0  0  0  0  0  0  0  0  0  0
    6.1881   -3.8273    2.3306 H   0  0  0  0  0  0  0  0  0  0  0  0
    5.8026   -2.6349    3.5663 H   0  0  0  0  0  0  0  0  0  0  0  0
    3.8325   -4.2069    1.9182 H   0  0  0  0  0  0  0  0  0  0  0  0
    3.8834   -4.0924    3.6649 H   0  0  0  0  0  0  0  0  0  0  0  0
    1.1604   -1.7749    1.8648 H   0  0  0  0  0  0  0  0  0  0  0  0
    1.3185   -3.4120    2.5007 H   0  0  0  0  0  0  0  0  0  0  0  0
    2.0111   -3.0124    0.9452 H   0  0  0  0  0  0  0  0  0  0  0  0
    3.7621   -1.9480    4.6669 H   0  0  0  0  0  0  0  0  0  0  0  0
    0.7487   -1.6699    4.3090 H   0  0  0  0  0  0  0  0  0  0  0  0
    1.5734   -3.0852    4.9625 H   0  0  0  0  0  0  0  0  0  0  0  0
    0.8640   -1.6256    6.8227 H   0  0  0  0  0  0  0  0  0  0  0  0
    2.5708   -1.7491    6.7320 H   0  0  0  0  0  0  0  0  0  0  0  0
    3.1080    0.1928    8.0038 H   0  0  0  0  0  0  0  0  0  0  0  0
    1.3839    0.3516    8.3022 H   0  0  0  0  0  0  0  0  0  0  0  0
    2.3054    1.7269    7.7508 H   0  0  0  0  0  0  0  0  0  0  0  0
   -0.7842   -0.3593    6.5455 H   0  0  0  0  0  0  0  0  0  0  0  0
   -2.5274    0.5377    4.9691 H   0  0  0  0  0  0  0  0  0  0  0  0
   -2.5188    1.4684    6.4702 H   0  0  0  0  0  0  0  0  0  0  0  0
   -0.2829    4.0906    4.3860 H   0  0  0  0  0  0  0  0  0  0  0  0
   -0.4313    3.6433    6.0759 H   0  0  0  0  0  0  0  0  0  0  0  0
    0.8870    2.0024    3.8792 H   0  0  0  0  0  0  0  0  0  0  0  0
    2.2367    3.9022    4.6887 H   0  0  0  0  0  0  0  0  0  0  0  0
    2.0699    3.3464    6.3233 H   0  0  0  0  0  0  0  0  0  0  0  0
    3.7423    2.3012    4.0773 H   0  0  0  0  0  0  0  0  0  0  0  0
    5.1596    2.0341    5.7762 H   0  0  0  0  0  0  0  0  0  0  0  0
    4.0118    0.1524    5.7193 H   0  0  0  0  0  0  0  0  0  0  0  0
    2.1200    0.1979    3.3393 H   0  0  0  0  0  0  0  0  0  0  0  0
    4.2010    0.9273    2.4210 H   0  0  0  0  0  0  0  0  0  0  0  0
    5.1266   -0.1420    3.4712 H   0  0  0  0  0  0  0  0  0  0  0  0
    2.4572   -0.0363    0.8683 H   0  0  0  0  0  0  0  0  0  0  0  0
    3.0587   -1.3108   -0.1314 H   0  0  0  0  0  0  0  0  0  0  0  0
    4.0481    0.1108    0.1288 H   0  0  0  0  0  0  0  0  0  0  0  0
  1  2  1  0
  1 32  1  0
  1 33  1  0
  1 34  1  0
  2 31  1  0
  2  3  1  0
  3  4  2  0
  4  5  1  0
  5  6  1  0
  5 31  2  0
  6 29  1  0
  6  7  1  0
  6 35  1  1
  7  8  1  0
  7 36  1  0
  7 37  1  0
  8  9  1  0
  8 38  1  0
  8 39  1  0
  9 29  1  0
  9 10  1  6
  9 11  1  0
 10 40  1  0
 10 41  1  0
 10 42  1  0
 11 27  1  0
 11 12  1  0
 11 43  1  1
 12 13  1  0
 12 44  1  0
 12 45  1  0
 13 14  1  0
 13 46  1  0
 13 47  1  0
 14 26  1  0
 14 15  1  1
 14 16  1  0
 15 48  1  0
 15 49  1  0
 15 50  1  0
 16 22  1  0
 16 17  2  0
 17 18  1  0
 17 51  1  0
 18 19  1  0
 18 52  1  0
 18 53  1  0
 19 20  2  0
 19 21  1  0
 21 22  1  0
 21 54  1  0
 21 55  1  0
 22 23  1  0
 22 56  1  6
 23 24  1  0
 23 57  1  0
 23 58  1  0
 24 25  1  0
 24 26  1  0
 24 59  1  6
 25 60  1  0
 26 27  1  0
 26 61  1  1
 27 28  1  0
 27 62  1  6
 28 29  1  0
 28 63  1  0
 28 64  1  0
 29 30  1  6
 30 65  1  0
 30 66  1  0
 30 67  1  0
M  END
>  <i_m_ct_stereo_status>  (366) 
1

>  <s_m_source_file>  (366) 
/var/tmp/pbs.5076255.sched01/tmpmzi298dc/117y2go66iu.sdf

>  <i_m_source_file_index>  (366) 
33

>  <i_lp_mmshare_version>  (366) 
48012

>  <i_f3d_flags>  (366) 
0

>  <s_epik_input>  (366) 
W0NIM11uMW5uYyhuMSlbQ0BIXShbQ0gyXVtDSDJdMilbQ0BdMyhbQ0gzXSlbQ0gyXVtDQEBIXShbQ0BASF00W0NAXTIzW0NIM10pW0NAQEhdNVtDQF0oW0NIM10pKFtDSDJdW0NIMl00KUM9NltDQEhdKFtDSDJdW0NASF01W09IXSlbQ0gyXUMoPU8pW0NIMl1bQ0hdNg==

>  <s_epik_cmdline>  (366) 
J2VwaWtfcHl0aG9uJywgJy1waHQnLCAnMi4wJywgJy1waCcsICc3LjAnLCAnLXRuJywgJzgnLCAnLW1hJywgJzIwMCcsICctaW1hZScsICc8aW5maWxlLm1hZT4nLCAnLW9tYWUnLCAnPG91dGZpbGUubWFlPic=

>  <r_lp_tautomer_probability>  (366) 
1

>  <r_epik_Ionization_Penalty>  (366) 
1.85031e-05

>  <r_epik_Ionization_Penalty_Charging>  (366) 
0

>  <r_epik_Ionization_Penalty_Neutral>  (366) 
1.85031e-05

>  <r_epik_State_Penalty>  (366) 
-0

>  <r_epik_Charging_Adjusted_Penalty>  (366) 
0

>  <i_epik_Tot_Q>  (366) 
0

>  <i_epik_Tot_abs_Q>  (366) 
0

>  <s_lp_Force_Field>  (366) 
OPLS3e

>  <r_lp_Energy>  (366) 
44.7746

>  <b_lp_Chiralities_Consistent>  (366) 
1

>  <s_lp_Variant>  (366) 
111:0-1

>  <s_i_glide_gridfile>  (366) 
pfpi4k_grid

>  <i_i_glide_lignum>  (366) 
33

>  <i_i_glide_rotatable_bonds>  (366) 
2

>  <r_i_docking_score>  (366) 
-2.38801

>  <r_i_glide_ligand_efficiency>  (366) 
-0.0770327

>  <r_i_glide_ligand_efficiency_sa>  (366) 
-0.241989

>  <r_i_glide_ligand_efficiency_ln>  (366) 
-0.53857

>  <r_i_glide_gscore>  (366) 
-2.38801

>  <r_i_glide_lipo>  (366) 
-0.145889

>  <r_i_glide_hbond>  (366) 
0

>  <r_i_glide_metal>  (366) 
-0

>  <r_i_glide_rewards>  (366) 
-0.672463

>  <r_i_glide_evdw>  (366) 
-24.7566

>  <r_i_glide_ecoul>  (366) 
-2.24639

>  <r_i_glide_erotb>  (366) 
0.110001

>  <r_i_glide_esite>  (366) 
-0.104871

>  <r_i_glide_emodel>  (366) 
-30.3804

>  <r_i_glide_energy>  (366) 
-27.003

>  <r_i_glide_einternal>  (366) 
0.773898

>  <r_i_glide_intrahb_reward>  (366) 
-0

>  <i_i_glide_confnum>  (366) 
3

>  <i_i_glide_posenum>  (366) 
29

>  <r_i_glide_eff_state_penalty>  (366) 
0

>  <ligand_id>  (366) 
111

>  <original_smiles>  (366) 
Cn1nnc(C2CCC3(C)C4CCC5(C)C6=CCC(=O)CC6CC(O)C5C4CC23C)n1

>  <smiles>  (366) 
[H]OC1([H])C([H])([H])C2([H])C(=C([H])C([H])([H])C(=O)C2([H])[H])C2(C([H])([H])[H])C([H])([H])C([H])([H])C3([H])C([H])(C([H])([H])C4(C([H])([H])[H])C([H])(c5nnn(C([H])([H])[H])n5)C([H])([H])C([H])([H])C34C([H])([H])[H])C12[H]

$$$$
112:0:0
     RDKit          3D

 14 15  0  0  1  0  0  0  0  0999 V2000
   -2.9819    3.7401    7.9685 C   0  0  0  0  0  0  0  0  0  0  0  0
   -2.5754    3.3210    6.8958 C   0  0  0  0  0  0  0  0  0  0  0  0
   -2.0813    2.8514    5.6119 C   0  0  0  0  0  0  0  0  0  0  0  0
   -1.9469    3.7564    4.6276 N   0  0  0  0  0  0  0  0  0  0  0  0
   -1.4887    3.3210    3.4345 C   0  0  0  0  0  0  0  0  0  0  0  0
   -1.1300    1.9951    3.0936 C   0  0  0  0  0  0  0  0  0  0  0  0
   -1.2948    1.1052    4.1560 N   0  0  0  0  0  0  0  0  0  0  0  0
   -1.0290   -0.2205    4.1157 N   0  0  0  0  0  0  0  0  0  0  0  0
   -1.3360   -0.6422    5.3070 N   0  0  0  0  0  0  0  0  0  0  0  0
   -1.7872    0.3712    6.1478 N   0  0  0  0  0  0  0  0  0  0  0  0
   -1.7627    1.4858    5.4164 C   0  0  0  0  0  0  0  0  0  0  0  0
   -3.3344    4.1210    8.9010 H   0  0  0  0  0  0  0  0  0  0  0  0
   -1.3912    4.0866    2.6819 H   0  0  0  0  0  0  0  0  0  0  0  0
   -0.7653    1.6612    2.1327 H   0  0  0  0  0  0  0  0  0  0  0  0
  1  2  3  0
  1 12  1  0
  2  3  1  0
  3 11  1  0
  3  4  2  0
  4  5  1  0
  5  6  2  0
  5 13  1  0
  6  7  1  0
  6 14  1  0
  7 11  1  0
  7  8  1  0
  8  9  2  0
  9 10  1  0
 10 11  2  0
M  END
>  <i_m_ct_stereo_status>  (367) 
1

>  <s_m_source_file>  (367) 
/var/tmp/pbs.5076255.sched01/tmpmzi298dc/117y2go66iu.sdf

>  <i_m_source_file_index>  (367) 
34

>  <i_lp_mmshare_version>  (367) 
48012

>  <i_f3d_flags>  (367) 
0

>  <s_epik_input>  (367) 
W2NIXTFbY0hdbmMoQyNbQ0hdKWMobjEyKW5ubjI=

>  <s_epik_cmdline>  (367) 
J2VwaWtfcHl0aG9uJywgJy1waHQnLCAnMi4wJywgJy1waCcsICc3LjAnLCAnLXRuJywgJzgnLCAnLW1hJywgJzIwMCcsICctaW1hZScsICc8aW5maWxlLm1hZT4nLCAnLW9tYWUnLCAnPG91dGZpbGUubWFlPic=

>  <r_lp_tautomer_probability>  (367) 
1

>  <r_epik_Ionization_Penalty>  (367) 
3.04738e-11

>  <r_epik_Ionization_Penalty_Charging>  (367) 
0

>  <r_epik_Ionization_Penalty_Neutral>  (367) 
3.04738e-11

>  <r_epik_State_Penalty>  (367) 
-0

>  <r_epik_Charging_Adjusted_Penalty>  (367) 
0

>  <i_epik_Tot_Q>  (367) 
0

>  <i_epik_Tot_abs_Q>  (367) 
0

>  <s_lp_Force_Field>  (367) 
OPLS3e

>  <r_lp_Energy>  (367) 
9.92942

>  <b_lp_Chiralities_Consistent>  (367) 
1

>  <s_lp_Variant>  (367) 
112:0-1

>  <s_i_glide_gridfile>  (367) 
pfpi4k_grid

>  <i_i_glide_lignum>  (367) 
34

>  <i_i_glide_rotatable_bonds>  (367) 
1

>  <r_i_docking_score>  (367) 
-4.14473

>  <r_i_glide_ligand_efficiency>  (367) 
-0.376794

>  <r_i_glide_ligand_efficiency_sa>  (367) 
-0.837981

>  <r_i_glide_ligand_efficiency_ln>  (367) 
-1.21979

>  <r_i_glide_gscore>  (367) 
-4.14473

>  <r_i_glide_lipo>  (367) 
-0.268962

>  <r_i_glide_hbond>  (367) 
0

>  <r_i_glide_metal>  (367) 
-0

>  <r_i_glide_rewards>  (367) 
-2.25

>  <r_i_glide_evdw>  (367) 
-15.3631

>  <r_i_glide_ecoul>  (367) 
-4.29467

>  <r_i_glide_erotb>  (367) 
0

>  <r_i_glide_esite>  (367) 
-0.213413

>  <r_i_glide_emodel>  (367) 
-26.2354

>  <r_i_glide_energy>  (367) 
-19.6578

>  <r_i_glide_einternal>  (367) 
-0.142886

>  <r_i_glide_intrahb_reward>  (367) 
-0

>  <i_i_glide_confnum>  (367) 
1

>  <i_i_glide_posenum>  (367) 
28

>  <r_i_glide_eff_state_penalty>  (367) 
0

>  <ligand_id>  (367) 
112

>  <original_smiles>  (367) 
C#Cc1nccn2nnnc12

>  <smiles>  (367) 
[H]C#Cc1nc([H])c([H])n2nnnc12

$$$$
112:0:1
     RDKit          3D

 14 15  0  0  1  0  0  0  0  0999 V2000
   -2.5177    2.1555    8.7266 C   0  0  0  0  0  0  0  0  0  0  0  0
   -2.1900    1.8399    7.5935 C   0  0  0  0  0  0  0  0  0  0  0  0
   -1.7816    1.4275    6.2621 C   0  0  0  0  0  0  0  0  0  0  0  0
   -1.3944    0.1489    6.1087 N   0  0  0  0  0  0  0  0  0  0  0  0
   -1.0036   -0.2395    4.8775 C   0  0  0  0  0  0  0  0  0  0  0  0
   -0.9709    0.5524    3.7046 C   0  0  0  0  0  0  0  0  0  0  0  0
   -1.4034    1.8597    3.9293 N   0  0  0  0  0  0  0  0  0  0  0  0
   -1.4928    2.8223    2.9881 N   0  0  0  0  0  0  0  0  0  0  0  0
   -1.9327    3.8598    3.6372 N   0  0  0  0  0  0  0  0  0  0  0  0
   -2.1489    3.6099    4.9897 N   0  0  0  0  0  0  0  0  0  0  0  0
   -1.8093    2.3361    5.1771 C   0  0  0  0  0  0  0  0  0  0  0  0
   -2.7927    2.4251    9.7230 H   0  0  0  0  0  0  0  0  0  0  0  0
   -0.6868   -1.2678    4.8128 H   0  0  0  0  0  0  0  0  0  0  0  0
   -0.6623    0.2312    2.7210 H   0  0  0  0  0  0  0  0  0  0  0  0
  1  2  3  0
  1 12  1  0
  2  3  1  0
  3 11  1  0
  3  4  2  0
  4  5  1  0
  5  6  2  0
  5 13  1  0
  6  7  1  0
  6 14  1  0
  7 11  1  0
  7  8  1  0
  8  9  2  0
  9 10  1  0
 10 11  2  0
M  END
>  <i_m_ct_stereo_status>  (368) 
1

>  <s_m_source_file>  (368) 
/var/tmp/pbs.5076255.sched01/tmpmzi298dc/117y2go66iu.sdf

>  <i_m_source_file_index>  (368) 
34

>  <i_lp_mmshare_version>  (368) 
48012

>  <i_f3d_flags>  (368) 
0

>  <s_epik_input>  (368) 
W2NIXTFbY0hdbmMoQyNbQ0hdKWMobjEyKW5ubjI=

>  <s_epik_cmdline>  (368) 
J2VwaWtfcHl0aG9uJywgJy1waHQnLCAnMi4wJywgJy1waCcsICc3LjAnLCAnLXRuJywgJzgnLCAnLW1hJywgJzIwMCcsICctaW1hZScsICc8aW5maWxlLm1hZT4nLCAnLW9tYWUnLCAnPG91dGZpbGUubWFlPic=

>  <r_lp_tautomer_probability>  (368) 
1

>  <r_epik_Ionization_Penalty>  (368) 
3.04738e-11

>  <r_epik_Ionization_Penalty_Charging>  (368) 
0

>  <r_epik_Ionization_Penalty_Neutral>  (368) 
3.04738e-11

>  <r_epik_State_Penalty>  (368) 
-0

>  <r_epik_Charging_Adjusted_Penalty>  (368) 
0

>  <i_epik_Tot_Q>  (368) 
0

>  <i_epik_Tot_abs_Q>  (368) 
0

>  <s_lp_Force_Field>  (368) 
OPLS3e

>  <r_lp_Energy>  (368) 
9.92942

>  <b_lp_Chiralities_Consistent>  (368) 
1

>  <s_lp_Variant>  (368) 
112:0-1

>  <s_i_glide_gridfile>  (368) 
pfpi4k_grid

>  <i_i_glide_lignum>  (368) 
34

>  <i_i_glide_rotatable_bonds>  (368) 
1

>  <r_i_docking_score>  (368) 
-3.88792

>  <r_i_glide_ligand_efficiency>  (368) 
-0.353447

>  <r_i_glide_ligand_efficiency_sa>  (368) 
-0.786059

>  <r_i_glide_ligand_efficiency_ln>  (368) 
-1.14421

>  <r_i_glide_gscore>  (368) 
-3.88792

>  <r_i_glide_lipo>  (368) 
0

>  <r_i_glide_hbond>  (368) 
-0.0850938

>  <r_i_glide_metal>  (368) 
-0

>  <r_i_glide_rewards>  (368) 
-2.25

>  <r_i_glide_evdw>  (368) 
-15.1762

>  <r_i_glide_ecoul>  (368) 
-3.94873

>  <r_i_glide_erotb>  (368) 
0

>  <r_i_glide_esite>  (368) 
-0.201706

>  <r_i_glide_emodel>  (368) 
-25.2921

>  <r_i_glide_energy>  (368) 
-19.1249

>  <r_i_glide_einternal>  (368) 
-0.149844

>  <r_i_glide_intrahb_reward>  (368) 
-0

>  <i_i_glide_confnum>  (368) 
2

>  <i_i_glide_posenum>  (368) 
34

>  <r_i_glide_eff_state_penalty>  (368) 
0

>  <ligand_id>  (368) 
112

>  <original_smiles>  (368) 
C#Cc1nccn2nnnc12

>  <smiles>  (368) 
[H]C#Cc1nc([H])c([H])n2nnnc12

$$$$
112:0:2
     RDKit          3D

 14 15  0  0  1  0  0  0  0  0999 V2000
    0.6150  -12.1196    4.3568 C   0  0  0  0  0  0  0  0  0  0  0  0
    0.9534  -11.1170    3.7501 C   0  0  0  0  0  0  0  0  0  0  0  0
    1.4081   -9.9398    3.0381 C   0  0  0  0  0  0  0  0  0  0  0  0
    2.6949   -9.9128    2.6531 N   0  0  0  0  0  0  0  0  0  0  0  0
    3.1327   -8.8237    1.9957 C   0  0  0  0  0  0  0  0  0  0  0  0
    2.3817   -7.6684    1.6763 C   0  0  0  0  0  0  0  0  0  0  0  0
    1.0526   -7.7592    2.0935 N   0  0  0  0  0  0  0  0  0  0  0  0
    0.1119   -6.8044    1.9056 N   0  0  0  0  0  0  0  0  0  0  0  0
   -0.9526   -7.3041    2.4644 N   0  0  0  0  0  0  0  0  0  0  0  0
   -0.7483   -8.5667    3.0098 N   0  0  0  0  0  0  0  0  0  0  0  0
    0.5299   -8.8614    2.7743 C   0  0  0  0  0  0  0  0  0  0  0  0
    0.3139  -12.9953    4.8825 H   0  0  0  0  0  0  0  0  0  0  0  0
    4.1692   -8.8680    1.7029 H   0  0  0  0  0  0  0  0  0  0  0  0
    2.7415   -6.8039    1.1393 H   0  0  0  0  0  0  0  0  0  0  0  0
  1  2  3  0
  1 12  1  0
  2  3  1  0
  3 11  1  0
  3  4  2  0
  4  5  1  0
  5  6  2  0
  5 13  1  0
  6  7  1  0
  6 14  1  0
  7 11  1  0
  7  8  1  0
  8  9  2  0
  9 10  1  0
 10 11  2  0
M  END
>  <i_m_ct_stereo_status>  (369) 
1

>  <s_m_source_file>  (369) 
/var/tmp/pbs.5076255.sched01/tmpmzi298dc/117y2go66iu.sdf

>  <i_m_source_file_index>  (369) 
34

>  <i_lp_mmshare_version>  (369) 
48012

>  <i_f3d_flags>  (369) 
0

>  <s_epik_input>  (369) 
W2NIXTFbY0hdbmMoQyNbQ0hdKWMobjEyKW5ubjI=

>  <s_epik_cmdline>  (369) 
J2VwaWtfcHl0aG9uJywgJy1waHQnLCAnMi4wJywgJy1waCcsICc3LjAnLCAnLXRuJywgJzgnLCAnLW1hJywgJzIwMCcsICctaW1hZScsICc8aW5maWxlLm1hZT4nLCAnLW9tYWUnLCAnPG91dGZpbGUubWFlPic=

>  <r_lp_tautomer_probability>  (369) 
1

>  <r_epik_Ionization_Penalty>  (369) 
3.04738e-11

>  <r_epik_Ionization_Penalty_Charging>  (369) 
0

>  <r_epik_Ionization_Penalty_Neutral>  (369) 
3.04738e-11

>  <r_epik_State_Penalty>  (369) 
-0

>  <r_epik_Charging_Adjusted_Penalty>  (369) 
0

>  <i_epik_Tot_Q>  (369) 
0

>  <i_epik_Tot_abs_Q>  (369) 
0

>  <s_lp_Force_Field>  (369) 
OPLS3e

>  <r_lp_Energy>  (369) 
9.92942

>  <b_lp_Chiralities_Consistent>  (369) 
1

>  <s_lp_Variant>  (369) 
112:0-1

>  <s_i_glide_gridfile>  (369) 
pfpi4k_grid

>  <i_i_glide_lignum>  (369) 
34

>  <i_i_glide_rotatable_bonds>  (369) 
1

>  <r_i_docking_score>  (369) 
-3.78761

>  <r_i_glide_ligand_efficiency>  (369) 
-0.344328

>  <r_i_glide_ligand_efficiency_sa>  (369) 
-0.765778

>  <r_i_glide_ligand_efficiency_ln>  (369) 
-1.11469

>  <r_i_glide_gscore>  (369) 
-3.78761

>  <r_i_glide_lipo>  (369) 
-0.215127

>  <r_i_glide_hbond>  (369) 
0

>  <r_i_glide_metal>  (369) 
-0

>  <r_i_glide_rewards>  (369) 
-2.25

>  <r_i_glide_evdw>  (369) 
-18.4284

>  <r_i_glide_ecoul>  (369) 
-0.623911

>  <r_i_glide_erotb>  (369) 
0

>  <r_i_glide_esite>  (369) 
-0.307471

>  <r_i_glide_emodel>  (369) 
-25.0502

>  <r_i_glide_energy>  (369) 
-19.0523

>  <r_i_glide_einternal>  (369) 
-0.149682

>  <r_i_glide_intrahb_reward>  (369) 
-0

>  <i_i_glide_confnum>  (369) 
2

>  <i_i_glide_posenum>  (369) 
21

>  <r_i_glide_eff_state_penalty>  (369) 
0

>  <ligand_id>  (369) 
112

>  <original_smiles>  (369) 
C#Cc1nccn2nnnc12

>  <smiles>  (369) 
[H]C#Cc1nc([H])c([H])n2nnnc12

$$$$
