0:0:0
     RDKit          3D

 70 74  0  0  1  0  0  0  0  0999 V2000
    8.9951   -5.8560    2.2518 C   0  0  0  0  0  0  0  0  0  0  0  0
    7.6975   -5.8007    1.4453 C   0  0  0  0  0  0  0  0  0  0  0  0
    7.6234   -4.6240    0.4862 C   0  0  0  0  0  0  0  0  0  0  0  0
    6.6824   -6.6654    1.5334 C   0  0  0  0  0  0  0  0  0  0  0  0
    6.5268   -7.9390    2.3894 C   0  0  0  0  0  0  0  0  0  0  0  0
    5.3181   -7.9039    3.3598 C   0  0  2  0  0  0  0  0  0  0  0  0
    5.2778   -8.9160    4.5365 C   0  0  0  0  0  0  0  0  0  0  0  0
    6.5670   -9.7239    4.8032 C   0  0  0  0  0  0  0  0  0  0  0  0
    4.9543   -8.2931    5.9137 C   0  0  0  0  0  0  0  0  0  0  0  0
    4.1285   -9.6844    3.8032 C   0  0  1  0  0  0  0  0  0  0  0  0
    4.6424  -10.7648    3.0324 O   0  0  0  0  0  0  0  0  0  0  0  0
    3.0066  -10.4398    4.6820 C   0  0  1  0  0  0  0  0  0  0  0  0
    3.5714  -10.9022    5.9045 O   0  0  0  0  0  0  0  0  0  0  0  0
    1.6337   -9.6124    4.9210 C   0  0  2  0  0  0  0  0  0  0  0  0
    1.2907   -9.8190    6.2921 O   0  0  0  0  0  0  0  0  0  0  0  0
    0.2429   -9.5669    3.9819 C   0  0  2  0  0  0  0  0  0  0  0  0
    1.2622   -9.3282    3.1071 C   0  0  0  0  0  0  0  0  0  0  0  0
    1.7289   -8.2314    4.3168 C   0  0  1  0  0  0  0  0  0  0  0  0
    1.1438   -7.0468    5.3040 C   0  0  1  0  0  0  0  0  0  0  0  0
    0.8861   -7.2825    6.6778 O   0  0  0  0  0  0  0  0  0  0  0  0
    2.1838   -5.9696    5.2168 C   0  0  0  0  0  0  0  0  0  0  0  0
    2.1896   -4.7864    6.1780 C   0  0  0  0  0  0  0  0  0  0  0  0
    2.9869   -6.1863    4.2040 C   0  0  0  0  0  0  0  0  0  0  0  0
    2.5945   -7.4101    3.4144 C   0  0  2  0  0  0  0  0  0  0  0  0
    1.4080   -6.8762    2.4200 C   0  0  0  0  0  0  0  0  0  0  0  0
   -0.0320   -7.1033    2.8550 O   0  0  0  0  0  0  0  0  0  0  0  0
   -0.6982   -8.3767    3.3832 C   0  0  0  0  0  0  0  0  0  0  0  0
   -1.5580   -8.8754    2.1881 C   0  0  0  0  0  0  0  0  0  0  0  0
   -1.7713   -8.0104    4.4008 C   0  0  0  0  0  0  0  0  0  0  0  0
    3.8414   -8.3167    2.9572 C   0  0  1  0  0  0  0  0  0  0  0  0
    3.7261   -8.5196    1.4304 C   0  0  0  0  0  0  0  0  0  0  0  0
    3.1890   -9.5507    0.9967 O   0  0  0  0  0  0  0  0  0  0  0  0
    4.0530   -7.5831    0.6784 O   0  0  0  0  0  0  0  0  0  0  0  0
    9.8463   -5.8491    1.5731 H   0  0  0  0  0  0  0  0  0  0  0  0
    9.0754   -6.7454    2.8688 H   0  0  0  0  0  0  0  0  0  0  0  0
    9.0269   -4.9877    2.9036 H   0  0  0  0  0  0  0  0  0  0  0  0
    8.4155   -4.6812   -0.2608 H   0  0  0  0  0  0  0  0  0  0  0  0
    7.6791   -3.6698    1.0104 H   0  0  0  0  0  0  0  0  0  0  0  0
    6.6758   -4.6407   -0.0587 H   0  0  0  0  0  0  0  0  0  0  0  0
    5.8566   -6.4194    0.9083 H   0  0  0  0  0  0  0  0  0  0  0  0
    6.4799   -8.8001    1.7193 H   0  0  0  0  0  0  0  0  0  0  0  0
    7.4423   -8.0943    2.9477 H   0  0  0  0  0  0  0  0  0  0  0  0
    5.3425   -6.9298    3.8301 H   0  0  0  0  0  0  0  0  0  0  0  0
    6.3927  -10.5564    5.4908 H   0  0  0  0  0  0  0  0  0  0  0  0
    7.3596   -9.1069    5.2339 H   0  0  0  0  0  0  0  0  0  0  0  0
    6.9723  -10.1634    3.8927 H   0  0  0  0  0  0  0  0  0  0  0  0
    5.1082   -9.0043    6.7329 H   0  0  0  0  0  0  0  0  0  0  0  0
    3.9139   -7.9807    5.9904 H   0  0  0  0  0  0  0  0  0  0  0  0
    5.5852   -7.4244    6.1353 H   0  0  0  0  0  0  0  0  0  0  0  0
    4.0486  -10.8628    2.2900 H   0  0  0  0  0  0  0  0  0  0  0  0
    2.7495  -11.3974    4.2168 H   0  0  0  0  0  0  0  0  0  0  0  0
    2.9611  -11.4855    6.3372 H   0  0  0  0  0  0  0  0  0  0  0  0
    1.2593  -10.7569    6.4381 H   0  0  0  0  0  0  0  0  0  0  0  0
   -0.1792  -10.5701    3.8459 H   0  0  0  0  0  0  0  0  0  0  0  0
    1.7523  -10.2479    2.7822 H   0  0  0  0  0  0  0  0  0  0  0  0
    0.9550   -9.1045    2.0868 H   0  0  0  0  0  0  0  0  0  0  0  0
    0.2589   -6.5159    4.9673 H   0  0  0  0  0  0  0  0  0  0  0  0
    1.4522   -7.9979    6.9558 H   0  0  0  0  0  0  0  0  0  0  0  0
    1.2145   -4.2944    6.1694 H   0  0  0  0  0  0  0  0  0  0  0  0
    2.9486   -4.0599    5.8837 H   0  0  0  0  0  0  0  0  0  0  0  0
    2.4009   -5.1144    7.1989 H   0  0  0  0  0  0  0  0  0  0  0  0
    3.7741   -5.5129    3.9066 H   0  0  0  0  0  0  0  0  0  0  0  0
    1.5054   -5.7945    2.3148 H   0  0  0  0  0  0  0  0  0  0  0  0
    1.5129   -7.2114    1.3941 H   0  0  0  0  0  0  0  0  0  0  0  0
   -2.0523   -9.8250    2.4168 H   0  0  0  0  0  0  0  0  0  0  0  0
   -0.9958   -9.0162    1.2736 H   0  0  0  0  0  0  0  0  0  0  0  0
   -2.3282   -8.1480    1.9425 H   0  0  0  0  0  0  0  0  0  0  0  0
   -2.5146   -8.8051    4.4613 H   0  0  0  0  0  0  0  0  0  0  0  0
   -2.2757   -7.0729    4.1755 H   0  0  0  0  0  0  0  0  0  0  0  0
   -1.2974   -7.9509    5.3609 H   0  0  0  0  0  0  0  0  0  0  0  0
  1  2  1  0
  1 34  1  0
  1 35  1  0
  1 36  1  0
  2  3  1  0
  2  4  2  3
  3 37  1  0
  3 38  1  0
  3 39  1  0
  4  5  1  0
  4 40  1  0
  5  6  1  0
  5 41  1  0
  5 42  1  0
  6 30  1  0
  6  7  1  0
  6 43  1  1
  7  8  1  0
  7  9  1  0
  7 10  1  0
  8 44  1  0
  8 45  1  0
  8 46  1  0
  9 47  1  0
  9 48  1  0
  9 49  1  0
 10 30  1  0
 10 11  1  6
 10 12  1  0
 11 50  1  0
 12 13  1  0
 12 14  1  0
 12 51  1  6
 13 52  1  0
 14 18  1  0
 14 15  1  1
 14 16  1  0
 15 53  1  0
 16 27  1  0
 16 17  1  0
 16 54  1  6
 18 17  1  6
 17 55  1  0
 17 56  1  0
 18 24  1  0
 18 19  1  0
 19 20  1  0
 19 21  1  0
 19 57  1  6
 20 58  1  0
 21 22  1  0
 21 23  2  0
 22 59  1  0
 22 60  1  0
 22 61  1  0
 24 23  1  1
 23 62  1  0
 24 25  1  0
 24 30  1  0
 25 26  1  0
 25 63  1  0
 25 64  1  0
 26 27  1  0
 27 28  1  0
 27 29  1  0
 28 65  1  0
 28 66  1  0
 28 67  1  0
 29 68  1  0
 29 69  1  0
 29 70  1  0
 30 31  1  6
 31 32  2  0
 31 33  1  0
M  CHG  1  33  -1
M  END
>  <i_m_ct_stereo_status>  (1) 
1

>  <s_m_source_file>  (1) 
/var/tmp/pbs.5076255.sched01/tmp98udq4tg/0t315e5yz.sdf

>  <i_m_source_file_index>  (1) 
1

>  <i_lp_mmshare_version>  (1) 
48012

>  <i_f3d_flags>  (1) 
0

>  <s_epik_input>  (1) 
W0NIM11DKFtDSDNdKT1bQ0hdW0NIMl1bQ0BASF0xQyhbQ0gzXSkoW0NIM10pW0NAQF0oW09IXSkoW0NAQEhdKFtPSF0pW0NAXTIoW09IXSlbQ0BIXShbQ0gyXTMpQyhbQ0gzXSkoW0NIM10pT1tDSDJdNClbQ0BAXTEoQyg9TylbT0hdKVtDQEBdNChbQ0BdMjM1KVtDSF09QyhbQ0gzXSlbQ0BASF01W09IXQ==

>  <s_epik_cmdline>  (1) 
J2VwaWtfcHl0aG9uJywgJy1waHQnLCAnMi4wJywgJy1waCcsICc3LjAnLCAnLXRuJywgJzgnLCAnLW1hJywgJzIwMCcsICctaW1hZScsICc8aW5maWxlLm1hZT4nLCAnLW9tYWUnLCAnPG91dGZpbGUubWFlPic=

>  <r_epik_Ionization_Penalty>  (1) 
0.00163432

>  <r_epik_Ionization_Penalty_Charging>  (1) 
0.00163383

>  <r_epik_Ionization_Penalty_Neutral>  (1) 
4.88882e-07

>  <r_epik_State_Penalty>  (1) 
0.00110091

>  <r_epik_Charging_Adjusted_Penalty>  (1) 
0.00273474

>  <i_epik_Tot_Q>  (1) 
-1

>  <i_epik_Tot_abs_Q>  (1) 
1

>  <s_lp_Force_Field>  (1) 
OPLS3e

>  <r_lp_Energy>  (1) 
273.204

>  <b_lp_Chiralities_Consistent>  (1) 
1

>  <s_lp_Variant>  (1) 
0:0-1

>  <s_i_glide_gridfile>  (1) 
pfpi4k_grid

>  <i_i_glide_lignum>  (1) 
1

>  <i_i_glide_rotatable_bonds>  (1) 
7

>  <r_i_docking_score>  (1) 
-3.46709

>  <r_i_glide_ligand_efficiency>  (1) 
-0.105063

>  <r_i_glide_ligand_efficiency_sa>  (1) 
-0.336995

>  <r_i_glide_ligand_efficiency_ln>  (1) 
-0.771064

>  <r_i_glide_gscore>  (1) 
-3.46709

>  <r_i_glide_lipo>  (1) 
-0.483271

>  <r_i_glide_hbond>  (1) 
0

>  <r_i_glide_metal>  (1) 
-0

>  <r_i_glide_rewards>  (1) 
-1.26204

>  <r_i_glide_evdw>  (1) 
-19.9893

>  <r_i_glide_ecoul>  (1) 
-5.90163

>  <r_i_glide_erotb>  (1) 
0.189042

>  <r_i_glide_esite>  (1) 
-0.0261151

>  <r_i_glide_emodel>  (1) 
-39.968

>  <r_i_glide_energy>  (1) 
-25.891

>  <r_i_glide_einternal>  (1) 
3.15175

>  <r_i_glide_intrahb_reward>  (1) 
-1

>  <i_i_glide_confnum>  (1) 
4

>  <i_i_glide_posenum>  (1) 
25

>  <r_i_glide_eff_state_penalty>  (1) 
0

>  <ligand_id>  (1) 
0

>  <original_smiles>  (1) 
CC(C)=CCC1C(C)(C)C2(O)C(O)C3(O)C4CC35C(O)C(C)=CC5(COC4(C)C)C12C(=O)O

>  <smiles>  (1) 
[H]OC1([H])C(C([H])([H])[H])=C([H])C23C([H])([H])OC(C([H])([H])[H])(C([H])([H])[H])C4([H])C([H])([H])C12C4(O[H])C([H])(O[H])C1(O[H])C3(C(=O)[O-])C([H])(C([H])([H])C([H])=C(C([H])([H])[H])C([H])([H])[H])C1(C([H])([H])[H])C([H])([H])[H]

$$$$
0:0:1
     RDKit          3D

 70 74  0  0  1  0  0  0  0  0999 V2000
    2.4701   -1.6557    1.3965 C   0  0  0  0  0  0  0  0  0  0  0  0
    2.8950   -1.8355    2.8484 C   0  0  0  0  0  0  0  0  0  0  0  0
    2.1045   -0.9731    3.8122 C   0  0  0  0  0  0  0  0  0  0  0  0
    3.8659   -2.6683    3.2691 C   0  0  0  0  0  0  0  0  0  0  0  0
    4.6781   -3.6324    2.4038 C   0  0  0  0  0  0  0  0  0  0  0  0
    4.7851   -5.0458    2.9741 C   0  0  2  0  0  0  0  0  0  0  0  0
    5.9156   -5.9743    2.4480 C   0  0  0  0  0  0  0  0  0  0  0  0
    6.9873   -5.3367    1.5478 C   0  0  0  0  0  0  0  0  0  0  0  0
    6.7413   -6.7061    3.5215 C   0  0  0  0  0  0  0  0  0  0  0  0
    4.8059   -6.7996    1.7226 C   0  0  1  0  0  0  0  0  0  0  0  0
    4.6944   -6.3998    0.3642 O   0  0  0  0  0  0  0  0  0  0  0  0
    5.0058   -8.3765    1.4762 C   0  0  1  0  0  0  0  0  0  0  0  0
    6.3903   -8.6673    1.3602 O   0  0  0  0  0  0  0  0  0  0  0  0
    4.2740   -9.3204    2.5442 C   0  0  2  0  0  0  0  0  0  0  0  0
    5.1942  -10.3850    2.7701 O   0  0  0  0  0  0  0  0  0  0  0  0
    2.7318   -9.9481    2.5763 C   0  0  2  0  0  0  0  0  0  0  0  0
    2.5627   -8.6263    2.3025 C   0  0  0  0  0  0  0  0  0  0  0  0
    3.6072   -8.5310    3.6355 C   0  0  1  0  0  0  0  0  0  0  0  0
    3.8974   -9.0874    5.1505 C   0  0  1  0  0  0  0  0  0  0  0  0
    4.9012  -10.0297    5.4335 O   0  0  0  0  0  0  0  0  0  0  0  0
    4.2165   -7.8697    5.9539 C   0  0  0  0  0  0  0  0  0  0  0  0
    4.7940   -7.9342    7.3523 C   0  0  0  0  0  0  0  0  0  0  0  0
    3.8782   -6.7739    5.2902 C   0  0  0  0  0  0  0  0  0  0  0  0
    3.2294   -7.1125    3.9699 C   0  0  2  0  0  0  0  0  0  0  0  0
    1.6797   -7.4013    4.3553 C   0  0  0  0  0  0  0  0  0  0  0  0
    1.2841   -8.8560    4.5275 O   0  0  0  0  0  0  0  0  0  0  0  0
    1.5561  -10.0767    3.6530 C   0  0  0  0  0  0  0  0  0  0  0  0
    0.1934  -10.3048    2.9454 C   0  0  0  0  0  0  0  0  0  0  0  0
    1.7253  -11.3389    4.5306 C   0  0  0  0  0  0  0  0  0  0  0  0
    3.7239   -6.1949    2.7594 C   0  0  1  0  0  0  0  0  0  0  0  0
    2.4360   -5.5551    2.0898 C   0  0  0  0  0  0  0  0  0  0  0  0
    1.7437   -4.8375    2.8183 O   0  0  0  0  0  0  0  0  0  0  0  0
    2.0273   -5.8982    0.9563 O   0  0  0  0  0  0  0  0  0  0  0  0
    1.4001   -1.8369    1.3198 H   0  0  0  0  0  0  0  0  0  0  0  0
    2.9465   -2.3257    0.6907 H   0  0  0  0  0  0  0  0  0  0  0  0
    2.6587   -0.6340    1.0625 H   0  0  0  0  0  0  0  0  0  0  0  0
    1.0437   -1.2286    3.7454 H   0  0  0  0  0  0  0  0  0  0  0  0
    2.2088    0.0875    3.5633 H   0  0  0  0  0  0  0  0  0  0  0  0
    2.4173   -1.1205    4.8509 H   0  0  0  0  0  0  0  0  0  0  0  0
    4.0994   -2.6850    4.3132 H   0  0  0  0  0  0  0  0  0  0  0  0
    4.4000   -3.6708    1.3594 H   0  0  0  0  0  0  0  0  0  0  0  0
    5.6528   -3.1352    2.3979 H   0  0  0  0  0  0  0  0  0  0  0  0
    5.0269   -4.9453    4.0375 H   0  0  0  0  0  0  0  0  0  0  0  0
    7.5768   -6.0891    1.0245 H   0  0  0  0  0  0  0  0  0  0  0  0
    7.6796   -4.7017    2.1023 H   0  0  0  0  0  0  0  0  0  0  0  0
    6.5453   -4.7002    0.7719 H   0  0  0  0  0  0  0  0  0  0  0  0
    7.6073   -7.2135    3.0937 H   0  0  0  0  0  0  0  0  0  0  0  0
    6.1631   -7.4862    4.0188 H   0  0  0  0  0  0  0  0  0  0  0  0
    7.1209   -6.0262    4.2905 H   0  0  0  0  0  0  0  0  0  0  0  0
    4.2906   -5.5555    0.4035 H   0  0  0  0  0  0  0  0  0  0  0  0
    4.6533   -8.6569    0.4799 H   0  0  0  0  0  0  0  0  0  0  0  0
    6.4313   -9.6060    1.3741 H   0  0  0  0  0  0  0  0  0  0  0  0
    4.8848  -11.1009    2.2430 H   0  0  0  0  0  0  0  0  0  0  0  0
    2.6032  -10.5709    1.6930 H   0  0  0  0  0  0  0  0  0  0  0  0
    2.7411   -8.3582    1.2710 H   0  0  0  0  0  0  0  0  0  0  0  0
    1.5313   -8.3045    2.2644 H   0  0  0  0  0  0  0  0  0  0  0  0
    3.0454   -9.4760    5.7014 H   0  0  0  0  0  0  0  0  0  0  0  0
    4.6919  -10.4560    6.2386 H   0  0  0  0  0  0  0  0  0  0  0  0
    4.1615   -8.5544    7.9962 H   0  0  0  0  0  0  0  0  0  0  0  0
    4.8634   -6.9392    7.8007 H   0  0  0  0  0  0  0  0  0  0  0  0
    5.7968   -8.3716    7.3399 H   0  0  0  0  0  0  0  0  0  0  0  0
    3.9648   -5.7778    5.6809 H   0  0  0  0  0  0  0  0  0  0  0  0
    1.4552   -6.9229    5.3127 H   0  0  0  0  0  0  0  0  0  0  0  0
    0.9506   -6.9365    3.7051 H   0  0  0  0  0  0  0  0  0  0  0  0
    0.2335  -11.1354    2.2482 H   0  0  0  0  0  0  0  0  0  0  0  0
   -0.1841   -9.4471    2.3962 H   0  0  0  0  0  0  0  0  0  0  0  0
   -0.5763  -10.5412    3.6770 H   0  0  0  0  0  0  0  0  0  0  0  0
    1.4869  -12.2289    3.9638 H   0  0  0  0  0  0  0  0  0  0  0  0
    1.0560  -11.3183    5.3944 H   0  0  0  0  0  0  0  0  0  0  0  0
    2.7356  -11.4806    4.8926 H   0  0  0  0  0  0  0  0  0  0  0  0
  1  2  1  0
  1 34  1  0
  1 35  1  0
  1 36  1  0
  2  3  1  0
  2  4  2  3
  3 37  1  0
  3 38  1  0
  3 39  1  0
  4  5  1  0
  4 40  1  0
  5  6  1  0
  5 41  1  0
  5 42  1  0
  6 30  1  0
  6  7  1  0
  6 43  1  1
  7  8  1  0
  7  9  1  0
  7 10  1  0
  8 44  1  0
  8 45  1  0
  8 46  1  0
  9 47  1  0
  9 48  1  0
  9 49  1  0
 10 30  1  0
 10 11  1  6
 10 12  1  0
 11 50  1  0
 12 13  1  0
 12 14  1  0
 12 51  1  6
 13 52  1  0
 14 18  1  0
 14 15  1  1
 14 16  1  0
 15 53  1  0
 16 27  1  0
 16 17  1  0
 16 54  1  6
 18 17  1  6
 17 55  1  0
 17 56  1  0
 18 24  1  0
 18 19  1  0
 19 20  1  0
 19 21  1  0
 19 57  1  1
 20 58  1  0
 21 22  1  0
 21 23  2  0
 22 59  1  0
 22 60  1  0
 22 61  1  0
 24 23  1  1
 23 62  1  0
 24 25  1  0
 24 30  1  0
 25 26  1  0
 25 63  1  0
 25 64  1  0
 26 27  1  0
 27 28  1  0
 27 29  1  0
 28 65  1  0
 28 66  1  0
 28 67  1  0
 29 68  1  0
 29 69  1  0
 29 70  1  0
 30 31  1  6
 31 32  2  0
 31 33  1  0
M  CHG  1  33  -1
M  END
>  <i_m_ct_stereo_status>  (2) 
1

>  <s_m_source_file>  (2) 
/var/tmp/pbs.5076255.sched01/tmp98udq4tg/0t315e5yz.sdf

>  <i_m_source_file_index>  (2) 
1

>  <i_lp_mmshare_version>  (2) 
48012

>  <i_f3d_flags>  (2) 
0

>  <s_epik_input>  (2) 
W0NIM11DKFtDSDNdKT1bQ0hdW0NIMl1bQ0BASF0xQyhbQ0gzXSkoW0NIM10pW0NAQF0oW09IXSkoW0NAQEhdKFtPSF0pW0NAXTIoW09IXSlbQ0BIXShbQ0gyXTMpQyhbQ0gzXSkoW0NIM10pT1tDSDJdNClbQ0BAXTEoQyg9TylbT0hdKVtDQEBdNChbQ0BdMjM1KVtDSF09QyhbQ0gzXSlbQ0BASF01W09IXQ==

>  <s_epik_cmdline>  (2) 
J2VwaWtfcHl0aG9uJywgJy1waHQnLCAnMi4wJywgJy1waCcsICc3LjAnLCAnLXRuJywgJzgnLCAnLW1hJywgJzIwMCcsICctaW1hZScsICc8aW5maWxlLm1hZT4nLCAnLW9tYWUnLCAnPG91dGZpbGUubWFlPic=

>  <r_epik_Ionization_Penalty>  (2) 
0.00163432

>  <r_epik_Ionization_Penalty_Charging>  (2) 
0.00163383

>  <r_epik_Ionization_Penalty_Neutral>  (2) 
4.88882e-07

>  <r_epik_State_Penalty>  (2) 
0.00110091

>  <r_epik_Charging_Adjusted_Penalty>  (2) 
0.00273474

>  <i_epik_Tot_Q>  (2) 
-1

>  <i_epik_Tot_abs_Q>  (2) 
1

>  <s_lp_Force_Field>  (2) 
OPLS3e

>  <r_lp_Energy>  (2) 
273.204

>  <b_lp_Chiralities_Consistent>  (2) 
1

>  <s_lp_Variant>  (2) 
0:0-1

>  <s_i_glide_gridfile>  (2) 
pfpi4k_grid

>  <i_i_glide_lignum>  (2) 
1

>  <i_i_glide_rotatable_bonds>  (2) 
7

>  <r_i_docking_score>  (2) 
-1.68264

>  <r_i_glide_ligand_efficiency>  (2) 
-0.0509891

>  <r_i_glide_ligand_efficiency_sa>  (2) 
-0.163549

>  <r_i_glide_ligand_efficiency_ln>  (2) 
-0.374211

>  <r_i_glide_gscore>  (2) 
-1.68264

>  <r_i_glide_lipo>  (2) 
-0.301256

>  <r_i_glide_hbond>  (2) 
0

>  <r_i_glide_metal>  (2) 
-0

>  <r_i_glide_rewards>  (2) 
-0.262038

>  <r_i_glide_evdw>  (2) 
-20.858

>  <r_i_glide_ecoul>  (2) 
-1.67321

>  <r_i_glide_erotb>  (2) 
0.189042

>  <r_i_glide_esite>  (2) 
-0.0145078

>  <r_i_glide_emodel>  (2) 
-23.4626

>  <r_i_glide_energy>  (2) 
-22.5312

>  <r_i_glide_einternal>  (2) 
3.20618

>  <r_i_glide_intrahb_reward>  (2) 
-0

>  <i_i_glide_confnum>  (2) 
4

>  <i_i_glide_posenum>  (2) 
9

>  <r_i_glide_eff_state_penalty>  (2) 
0

>  <ligand_id>  (2) 
0

>  <original_smiles>  (2) 
CC(C)=CCC1C(C)(C)C2(O)C(O)C3(O)C4CC35C(O)C(C)=CC5(COC4(C)C)C12C(=O)O

>  <smiles>  (2) 
[H]OC1([H])C(C([H])([H])[H])=C([H])C23C([H])([H])OC(C([H])([H])[H])(C([H])([H])[H])C4([H])C([H])([H])C12C4(O[H])C([H])(O[H])C1(O[H])C3(C(=O)[O-])C([H])(C([H])([H])C([H])=C(C([H])([H])[H])C([H])([H])[H])C1(C([H])([H])[H])C([H])([H])[H]

$$$$
0:0:2
     RDKit          3D

 70 74  0  0  1  0  0  0  0  0999 V2000
    5.2032   -5.4119    2.1177 C   0  0  0  0  0  0  0  0  0  0  0  0
    6.4095   -5.8000    1.3713 C   0  0  0  0  0  0  0  0  0  0  0  0
    6.7569   -4.6693    0.4369 C   0  0  0  0  0  0  0  0  0  0  0  0
    7.0945   -6.9664    1.4206 C   0  0  0  0  0  0  0  0  0  0  0  0
    6.8357   -8.2371    2.2687 C   0  0  0  0  0  0  0  0  0  0  0  0
    5.7093   -8.1910    3.3135 C   0  0  2  0  0  0  0  0  0  0  0  0
    5.6042   -9.1985    4.4421 C   0  0  0  0  0  0  0  0  0  0  0  0
    6.8472  -10.1153    4.6052 C   0  0  0  0  0  0  0  0  0  0  0  0
    5.3770   -8.5535    5.8308 C   0  0  0  0  0  0  0  0  0  0  0  0
    4.3661   -9.8188    3.7142 C   0  0  1  0  0  0  0  0  0  0  0  0
    4.7489  -10.9357    2.8978 O   0  0  0  0  0  0  0  0  0  0  0  0
    3.2008  -10.4550    4.6417 C   0  0  1  0  0  0  0  0  0  0  0  0
    3.7840  -11.0445    5.8002 O   0  0  0  0  0  0  0  0  0  0  0  0
    1.9072   -9.5395    4.9376 C   0  0  2  0  0  0  0  0  0  0  0  0
    1.5782   -9.7788    6.3100 O   0  0  0  0  0  0  0  0  0  0  0  0
    0.4993   -9.3513    4.0491 C   0  0  2  0  0  0  0  0  0  0  0  0
    1.5097   -9.1780    3.1478 C   0  0  0  0  0  0  0  0  0  0  0  0
    2.1057   -8.1598    4.3735 C   0  0  1  0  0  0  0  0  0  0  0  0
    1.6408   -6.9557    5.3906 C   0  0  1  0  0  0  0  0  0  0  0  0
    1.4002   -7.1962    6.7680 O   0  0  0  0  0  0  0  0  0  0  0  0
    2.7512   -5.9712    5.3521 C   0  0  0  0  0  0  0  0  0  0  0  0
    2.9485   -4.7888    6.2745 C   0  0  0  0  0  0  0  0  0  0  0  0
    3.5085   -6.2446    4.3312 C   0  0  0  0  0  0  0  0  0  0  0  0
    3.0250   -7.4037    3.4567 C   0  0  2  0  0  0  0  0  0  0  0  0
    1.8503   -6.7312    2.5107 C   0  0  0  0  0  0  0  0  0  0  0  0
    0.3998   -6.8507    2.9852 O   0  0  0  0  0  0  0  0  0  0  0  0
   -0.3583   -8.0718    3.5374 C   0  0  0  0  0  0  0  0  0  0  0  0
   -1.2769   -8.4563    2.3416 C   0  0  0  0  0  0  0  0  0  0  0  0
   -1.3485   -7.6180    4.6368 C   0  0  0  0  0  0  0  0  0  0  0  0
    4.1793   -8.4228    2.9130 C   0  0  1  0  0  0  0  0  0  0  0  0
    4.0132   -8.5838    1.3307 C   0  0  0  0  0  0  0  0  0  0  0  0
    4.5838   -7.7918    0.5515 O   0  0  0  0  0  0  0  0  0  0  0  0
    3.2741   -9.4786    0.8954 O   0  0  0  0  0  0  0  0  0  0  0  0
    5.3526   -4.5678    2.8287 H   0  0  0  0  0  0  0  0  0  0  0  0
    4.9840   -6.2280    2.6079 H   0  0  0  0  0  0  0  0  0  0  0  0
    4.2533   -5.3477    1.5900 H   0  0  0  0  0  0  0  0  0  0  0  0
    6.9726   -3.7919    1.0377 H   0  0  0  0  0  0  0  0  0  0  0  0
    5.8905   -4.4695   -0.1952 H   0  0  0  0  0  0  0  0  0  0  0  0
    7.6104   -4.9375   -0.1688 H   0  0  0  0  0  0  0  0  0  0  0  0
    7.9308   -7.0701    0.7564 H   0  0  0  0  0  0  0  0  0  0  0  0
    6.6119   -9.0280    1.5432 H   0  0  0  0  0  0  0  0  0  0  0  0
    7.7773   -8.5518    2.7414 H   0  0  0  0  0  0  0  0  0  0  0  0
    5.9346   -7.2643    3.8677 H   0  0  0  0  0  0  0  0  0  0  0  0
    6.6320  -10.9433    5.2752 H   0  0  0  0  0  0  0  0  0  0  0  0
    7.7010   -9.5679    5.0027 H   0  0  0  0  0  0  0  0  0  0  0  0
    7.1672  -10.5542    3.6607 H   0  0  0  0  0  0  0  0  0  0  0  0
    5.4836   -9.2637    6.6425 H   0  0  0  0  0  0  0  0  0  0  0  0
    4.3826   -8.1273    5.9380 H   0  0  0  0  0  0  0  0  0  0  0  0
    6.0841   -7.7445    6.0275 H   0  0  0  0  0  0  0  0  0  0  0  0
    4.1071  -11.0595    2.2099 H   0  0  0  0  0  0  0  0  0  0  0  0
    2.8087  -11.3543    4.1693 H   0  0  0  0  0  0  0  0  0  0  0  0
    3.1236  -11.5488    6.2453 H   0  0  0  0  0  0  0  0  0  0  0  0
    1.4008  -10.7009    6.4291 H   0  0  0  0  0  0  0  0  0  0  0  0
   -0.0455  -10.2931    3.9395 H   0  0  0  0  0  0  0  0  0  0  0  0
    1.9615  -10.0952    2.7732 H   0  0  0  0  0  0  0  0  0  0  0  0
    1.2153   -8.8854    2.1386 H   0  0  0  0  0  0  0  0  0  0  0  0
    0.8187   -6.3243    5.0763 H   0  0  0  0  0  0  0  0  0  0  0  0
    2.1198   -7.7124    7.0828 H   0  0  0  0  0  0  0  0  0  0  0  0
    2.0275   -4.2019    6.3084 H   0  0  0  0  0  0  0  0  0  0  0  0
    3.7554   -4.1273    5.9510 H   0  0  0  0  0  0  0  0  0  0  0  0
    3.1907   -5.1399    7.2800 H   0  0  0  0  0  0  0  0  0  0  0  0
    4.2791   -5.5417    4.1946 H   0  0  0  0  0  0  0  0  0  0  0  0
    2.0266   -5.6562    2.4019 H   0  0  0  0  0  0  0  0  0  0  0  0
    1.8784   -7.0463    1.4651 H   0  0  0  0  0  0  0  0  0  0  0  0
   -1.8638   -9.3500    2.5597 H   0  0  0  0  0  0  0  0  0  0  0  0
   -0.7301   -8.6553    1.4229 H   0  0  0  0  0  0  0  0  0  0  0  0
   -1.9737   -7.6592    2.1009 H   0  0  0  0  0  0  0  0  0  0  0  0
   -2.1731   -8.3246    4.7351 H   0  0  0  0  0  0  0  0  0  0  0  0
   -1.7728   -6.6418    4.4184 H   0  0  0  0  0  0  0  0  0  0  0  0
   -0.8899   -7.5730    5.6207 H   0  0  0  0  0  0  0  0  0  0  0  0
  1  2  1  0
  1 34  1  0
  1 35  1  0
  1 36  1  0
  2  3  1  0
  2  4  2  3
  3 37  1  0
  3 38  1  0
  3 39  1  0
  4  5  1  0
  4 40  1  0
  5  6  1  0
  5 41  1  0
  5 42  1  0
  6 30  1  0
  6  7  1  0
  6 43  1  1
  7  8  1  0
  7  9  1  0
  7 10  1  0
  8 44  1  0
  8 45  1  0
  8 46  1  0
  9 47  1  0
  9 48  1  0
  9 49  1  0
 10 30  1  0
 10 11  1  6
 10 12  1  0
 11 50  1  0
 12 13  1  0
 12 14  1  0
 12 51  1  6
 13 52  1  0
 14 18  1  0
 14 15  1  1
 14 16  1  0
 15 53  1  0
 16 27  1  0
 16 17  1  0
 16 54  1  6
 18 17  1  6
 17 55  1  0
 17 56  1  0
 18 24  1  0
 18 19  1  0
 19 20  1  0
 19 21  1  0
 19 57  1  6
 20 58  1  0
 21 22  1  0
 21 23  2  0
 22 59  1  0
 22 60  1  0
 22 61  1  0
 24 23  1  1
 23 62  1  0
 24 25  1  0
 24 30  1  0
 25 26  1  0
 25 63  1  0
 25 64  1  0
 26 27  1  0
 27 28  1  0
 27 29  1  0
 28 65  1  0
 28 66  1  0
 28 67  1  0
 29 68  1  0
 29 69  1  0
 29 70  1  0
 30 31  1  6
 31 32  2  0
 31 33  1  0
M  CHG  1  33  -1
M  END
>  <i_m_ct_stereo_status>  (3) 
1

>  <s_m_source_file>  (3) 
/var/tmp/pbs.5076255.sched01/tmp98udq4tg/0t315e5yz.sdf

>  <i_m_source_file_index>  (3) 
1

>  <i_lp_mmshare_version>  (3) 
48012

>  <i_f3d_flags>  (3) 
0

>  <s_epik_input>  (3) 
W0NIM11DKFtDSDNdKT1bQ0hdW0NIMl1bQ0BASF0xQyhbQ0gzXSkoW0NIM10pW0NAQF0oW09IXSkoW0NAQEhdKFtPSF0pW0NAXTIoW09IXSlbQ0BIXShbQ0gyXTMpQyhbQ0gzXSkoW0NIM10pT1tDSDJdNClbQ0BAXTEoQyg9TylbT0hdKVtDQEBdNChbQ0BdMjM1KVtDSF09QyhbQ0gzXSlbQ0BASF01W09IXQ==

>  <s_epik_cmdline>  (3) 
J2VwaWtfcHl0aG9uJywgJy1waHQnLCAnMi4wJywgJy1waCcsICc3LjAnLCAnLXRuJywgJzgnLCAnLW1hJywgJzIwMCcsICctaW1hZScsICc8aW5maWxlLm1hZT4nLCAnLW9tYWUnLCAnPG91dGZpbGUubWFlPic=

>  <r_epik_Ionization_Penalty>  (3) 
0.00163432

>  <r_epik_Ionization_Penalty_Charging>  (3) 
0.00163383

>  <r_epik_Ionization_Penalty_Neutral>  (3) 
4.88882e-07

>  <r_epik_State_Penalty>  (3) 
0.00110091

>  <r_epik_Charging_Adjusted_Penalty>  (3) 
0.00273474

>  <i_epik_Tot_Q>  (3) 
-1

>  <i_epik_Tot_abs_Q>  (3) 
1

>  <s_lp_Force_Field>  (3) 
OPLS3e

>  <r_lp_Energy>  (3) 
273.204

>  <b_lp_Chiralities_Consistent>  (3) 
1

>  <s_lp_Variant>  (3) 
0:0-1

>  <s_i_glide_gridfile>  (3) 
pfpi4k_grid

>  <i_i_glide_lignum>  (3) 
1

>  <i_i_glide_rotatable_bonds>  (3) 
7

>  <r_i_docking_score>  (3) 
-1.36716

>  <r_i_glide_ligand_efficiency>  (3) 
-0.0414292

>  <r_i_glide_ligand_efficiency_sa>  (3) 
-0.132886

>  <r_i_glide_ligand_efficiency_ln>  (3) 
-0.30405

>  <r_i_glide_gscore>  (3) 
-1.36716

>  <r_i_glide_lipo>  (3) 
-0.409747

>  <r_i_glide_hbond>  (3) 
0

>  <r_i_glide_metal>  (3) 
-0

>  <r_i_glide_rewards>  (3) 
-0.762038

>  <r_i_glide_evdw>  (3) 
-19.8154

>  <r_i_glide_ecoul>  (3) 
-5.74391

>  <r_i_glide_erotb>  (3) 
0.189042

>  <r_i_glide_esite>  (3) 
-0.0314098

>  <r_i_glide_emodel>  (3) 
-24.3813

>  <r_i_glide_energy>  (3) 
-25.5593

>  <r_i_glide_einternal>  (3) 
3.68769

>  <r_i_glide_intrahb_reward>  (3) 
-0.5

>  <i_i_glide_confnum>  (3) 
4

>  <i_i_glide_posenum>  (3) 
35

>  <r_i_glide_eff_state_penalty>  (3) 
0

>  <ligand_id>  (3) 
0

>  <original_smiles>  (3) 
CC(C)=CCC1C(C)(C)C2(O)C(O)C3(O)C4CC35C(O)C(C)=CC5(COC4(C)C)C12C(=O)O

>  <smiles>  (3) 
[H]OC1([H])C(C([H])([H])[H])=C([H])C23C([H])([H])OC(C([H])([H])[H])(C([H])([H])[H])C4([H])C([H])([H])C12C4(O[H])C([H])(O[H])C1(O[H])C3(C(=O)[O-])C([H])(C([H])([H])C([H])=C(C([H])([H])[H])C([H])([H])[H])C1(C([H])([H])[H])C([H])([H])[H]

$$$$
1:0:0
     RDKit          3D

 35 37  0  0  1  0  0  0  0  0999 V2000
    3.9264   -3.9197    2.3000 C   0  0  0  0  0  0  0  0  0  0  0  0
    4.2676   -3.3723    1.1191 C   0  0  0  0  0  0  0  0  0  0  0  0
    4.0438   -3.8555   -0.2677 C   0  0  2  0  0  0  0  0  0  0  0  0
    5.5365   -4.0691   -0.5522 C   0  0  0  0  0  0  0  0  0  0  0  0
    6.0060   -2.6106   -0.3425 C   0  0  1  0  0  0  0  0  0  0  0  0
    7.5083   -2.4920   -0.0330 C   0  0  0  0  0  0  0  0  0  0  0  0
    5.7846   -1.9990   -1.6348 O   0  0  0  0  0  0  0  0  0  0  0  0
    4.4653   -2.1695   -2.2016 C   0  0  0  0  0  0  0  0  0  0  0  0
    4.1429   -0.8169   -2.8847 C   0  0  0  0  0  0  0  0  0  0  0  0
    4.4307   -3.2309   -3.3293 C   0  0  0  0  0  0  0  0  0  0  0  0
    3.5331   -2.5417   -1.0094 C   0  0  2  0  0  0  0  0  0  0  0  0
    3.7908   -1.4413    0.0615 C   0  0  1  0  0  0  0  0  0  0  0  0
    2.6330   -1.2531    0.8794 O   0  0  0  0  0  0  0  0  0  0  0  0
    4.9781   -2.1051    0.7759 C   0  0  1  0  0  0  0  0  0  0  0  0
    5.5564   -1.2921    1.9382 C   0  0  0  0  0  0  0  0  0  0  0  0
    4.1587   -3.4265    3.2341 H   0  0  0  0  0  0  0  0  0  0  0  0
    3.4027   -4.8622    2.3439 H   0  0  0  0  0  0  0  0  0  0  0  0
    3.4223   -4.7475   -0.3500 H   0  0  0  0  0  0  0  0  0  0  0  0
    5.9858   -4.7478    0.1834 H   0  0  0  0  0  0  0  0  0  0  0  0
    5.7811   -4.4815   -1.5245 H   0  0  0  0  0  0  0  0  0  0  0  0
    7.7836   -2.9908    0.9012 H   0  0  0  0  0  0  0  0  0  0  0  0
    7.8015   -1.4443    0.0460 H   0  0  0  0  0  0  0  0  0  0  0  0
    8.0952   -2.9411   -0.8397 H   0  0  0  0  0  0  0  0  0  0  0  0
    3.0753   -0.7082   -3.0835 H   0  0  0  0  0  0  0  0  0  0  0  0
    4.6621   -0.7349   -3.8406 H   0  0  0  0  0  0  0  0  0  0  0  0
    4.4734    0.0461   -2.3072 H   0  0  0  0  0  0  0  0  0  0  0  0
    3.5930   -3.0622   -4.0046 H   0  0  0  0  0  0  0  0  0  0  0  0
    4.3071   -4.2505   -2.9785 H   0  0  0  0  0  0  0  0  0  0  0  0
    5.3486   -3.1972   -3.9122 H   0  0  0  0  0  0  0  0  0  0  0  0
    2.4885   -2.6158   -1.3139 H   0  0  0  0  0  0  0  0  0  0  0  0
    4.0691   -0.4664   -0.3226 H   0  0  0  0  0  0  0  0  0  0  0  0
    1.9050   -1.0541    0.2793 H   0  0  0  0  0  0  0  0  0  0  0  0
    6.0320   -0.3838    1.5722 H   0  0  0  0  0  0  0  0  0  0  0  0
    6.3046   -1.8693    2.4793 H   0  0  0  0  0  0  0  0  0  0  0  0
    4.7845   -1.0019    2.6501 H   0  0  0  0  0  0  0  0  0  0  0  0
  1  2  2  0
  1 16  1  0
  1 17  1  0
  2 14  1  0
  2  3  1  0
  3 11  1  0
  3  4  1  0
  3 18  1  1
  4  5  1  0
  4 19  1  0
  4 20  1  0
  5 14  1  0
  5  6  1  1
  5  7  1  0
  6 21  1  0
  6 22  1  0
  6 23  1  0
  7  8  1  0
  8  9  1  0
  8 10  1  0
  8 11  1  0
  9 24  1  0
  9 25  1  0
  9 26  1  0
 10 27  1  0
 10 28  1  0
 10 29  1  0
 11 12  1  0
 11 30  1  6
 12 13  1  0
 12 14  1  0
 12 31  1  6
 13 32  1  0
 14 15  1  1
 15 33  1  0
 15 34  1  0
 15 35  1  0
M  END
>  <i_m_ct_stereo_status>  (4) 
1

>  <s_m_source_file>  (4) 
/var/tmp/pbs.5076255.sched01/tmp98udq4tg/0t315e5yz.sdf

>  <i_m_source_file_index>  (4) 
2

>  <i_lp_mmshare_version>  (4) 
48012

>  <i_f3d_flags>  (4) 
0

>  <s_epik_input>  (4) 
W0NIM11bQ0BdMTJbQ0BdMyhbQ0gzXSlDKD1bQ0gyXSlbQ0BIXShbQ0gyXTEpW0NASF0oQyhPMikoW0NIM10pW0NIM10pW0NASF0zW09IXQ==

>  <s_epik_cmdline>  (4) 
J2VwaWtfcHl0aG9uJywgJy1waHQnLCAnMi4wJywgJy1waCcsICc3LjAnLCAnLXRuJywgJzgnLCAnLW1hJywgJzIwMCcsICctaW1hZScsICc8aW5maWxlLm1hZT4nLCAnLW9tYWUnLCAnPG91dGZpbGUubWFlPic=

>  <r_lp_tautomer_probability>  (4) 
1

>  <r_epik_Ionization_Penalty>  (4) 
1.02392e-07

>  <r_epik_Ionization_Penalty_Charging>  (4) 
0

>  <r_epik_Ionization_Penalty_Neutral>  (4) 
1.02392e-07

>  <r_epik_State_Penalty>  (4) 
-0

>  <r_epik_Charging_Adjusted_Penalty>  (4) 
0

>  <i_epik_Tot_Q>  (4) 
0

>  <i_epik_Tot_abs_Q>  (4) 
0

>  <s_lp_Force_Field>  (4) 
OPLS3e

>  <r_lp_Energy>  (4) 
52.6243

>  <b_lp_Chiralities_Consistent>  (4) 
1

>  <s_lp_Variant>  (4) 
1:0-1

>  <s_i_glide_gridfile>  (4) 
pfpi4k_grid

>  <i_i_glide_lignum>  (4) 
2

>  <i_i_glide_rotatable_bonds>  (4) 
1

>  <r_i_docking_score>  (4) 
-4.61575

>  <r_i_glide_ligand_efficiency>  (4) 
-0.307717

>  <r_i_glide_ligand_efficiency_sa>  (4) 
-0.758895

>  <r_i_glide_ligand_efficiency_ln>  (4) 
-1.24479

>  <r_i_glide_gscore>  (4) 
-4.61575

>  <r_i_glide_lipo>  (4) 
-0.558999

>  <r_i_glide_hbond>  (4) 
-0.168347

>  <r_i_glide_metal>  (4) 
-0

>  <r_i_glide_rewards>  (4) 
-1.98889

>  <r_i_glide_evdw>  (4) 
-20.2928

>  <r_i_glide_ecoul>  (4) 
-5.89921

>  <r_i_glide_erotb>  (4) 
0

>  <r_i_glide_esite>  (4) 
0

>  <r_i_glide_emodel>  (4) 
-34.408

>  <r_i_glide_energy>  (4) 
-26.192

>  <r_i_glide_einternal>  (4) 
0.532519

>  <r_i_glide_intrahb_reward>  (4) 
-0

>  <i_i_glide_confnum>  (4) 
2

>  <i_i_glide_posenum>  (4) 
14

>  <r_i_glide_eff_state_penalty>  (4) 
0

>  <ligand_id>  (4) 
1

>  <original_smiles>  (4) 
C=C1C2CC3(C)OC(C)(C)C2C(O)C13C

>  <smiles>  (4) 
[H]OC1([H])C2([H])C3([H])C(=C([H])[H])C1(C([H])([H])[H])C(C([H])([H])[H])(OC2(C([H])([H])[H])C([H])([H])[H])C3([H])[H]

$$$$
1:0:1
     RDKit          3D

 35 37  0  0  1  0  0  0  0  0999 V2000
    5.4086   -4.5707    2.8106 C   0  0  0  0  0  0  0  0  0  0  0  0
    5.1099   -3.9599    1.6526 C   0  0  0  0  0  0  0  0  0  0  0  0
    5.6892   -4.1251    0.2925 C   0  0  2  0  0  0  0  0  0  0  0  0
    6.3103   -2.7159    0.2549 C   0  0  0  0  0  0  0  0  0  0  0  0
    5.0042   -1.9122    0.4059 C   0  0  1  0  0  0  0  0  0  0  0  0
    5.2150   -0.4812    0.9162 C   0  0  0  0  0  0  0  0  0  0  0  0
    4.5279   -1.8134   -0.9594 O   0  0  0  0  0  0  0  0  0  0  0  0
    4.3979   -3.0523   -1.6928 C   0  0  0  0  0  0  0  0  0  0  0  0
    3.0974   -2.9002   -2.5210 C   0  0  0  0  0  0  0  0  0  0  0  0
    5.5354   -3.2357   -2.7187 C   0  0  0  0  0  0  0  0  0  0  0  0
    4.3792   -4.1832   -0.6187 C   0  0  2  0  0  0  0  0  0  0  0  0
    3.2569   -3.7541    0.3669 C   0  0  1  0  0  0  0  0  0  0  0  0
    2.6352   -4.8784    0.9730 O   0  0  0  0  0  0  0  0  0  0  0  0
    4.1148   -2.8942    1.3076 C   0  0  1  0  0  0  0  0  0  0  0  0
    3.3491   -2.2599    2.4819 C   0  0  0  0  0  0  0  0  0  0  0  0
    4.8877   -4.3261    3.7228 H   0  0  0  0  0  0  0  0  0  0  0  0
    6.1791   -5.3244    2.8592 H   0  0  0  0  0  0  0  0  0  0  0  0
    6.3947   -4.9504    0.1983 H   0  0  0  0  0  0  0  0  0  0  0  0
    6.9835   -2.5552    1.1020 H   0  0  0  0  0  0  0  0  0  0  0  0
    6.8864   -2.4592   -0.6317 H   0  0  0  0  0  0  0  0  0  0  0  0
    5.6414   -0.4603    1.9209 H   0  0  0  0  0  0  0  0  0  0  0  0
    4.2717    0.0673    0.9235 H   0  0  0  0  0  0  0  0  0  0  0  0
    5.8964    0.0522    0.2528 H   0  0  0  0  0  0  0  0  0  0  0  0
    2.7476   -3.8558   -2.9013 H   0  0  0  0  0  0  0  0  0  0  0  0
    3.2602   -2.2480   -3.3806 H   0  0  0  0  0  0  0  0  0  0  0  0
    2.2773   -2.4429   -1.9672 H   0  0  0  0  0  0  0  0  0  0  0  0
    5.2366   -3.9158   -3.5163 H   0  0  0  0  0  0  0  0  0  0  0  0
    6.4481   -3.6565   -2.3040 H   0  0  0  0  0  0  0  0  0  0  0  0
    5.7828   -2.2748   -3.1641 H   0  0  0  0  0  0  0  0  0  0  0  0
    4.2181   -5.1671   -1.0587 H   0  0  0  0  0  0  0  0  0  0  0  0
    2.4514   -3.1600   -0.0514 H   0  0  0  0  0  0  0  0  0  0  0  0
    3.3230   -5.4280    1.3212 H   0  0  0  0  0  0  0  0  0  0  0  0
    2.6361   -1.5232    2.1111 H   0  0  0  0  0  0  0  0  0  0  0  0
    4.0239   -1.7568    3.1727 H   0  0  0  0  0  0  0  0  0  0  0  0
    2.7909   -3.0040    3.0472 H   0  0  0  0  0  0  0  0  0  0  0  0
  1  2  2  0
  1 16  1  0
  1 17  1  0
  2 14  1  0
  2  3  1  0
  3 11  1  0
  3  4  1  0
  3 18  1  1
  4  5  1  0
  4 19  1  0
  4 20  1  0
  5 14  1  0
  5  6  1  1
  5  7  1  0
  6 21  1  0
  6 22  1  0
  6 23  1  0
  7  8  1  0
  8  9  1  0
  8 10  1  0
  8 11  1  0
  9 24  1  0
  9 25  1  0
  9 26  1  0
 10 27  1  0
 10 28  1  0
 10 29  1  0
 11 12  1  0
 11 30  1  6
 12 13  1  0
 12 14  1  0
 12 31  1  6
 13 32  1  0
 14 15  1  1
 15 33  1  0
 15 34  1  0
 15 35  1  0
M  END
>  <i_m_ct_stereo_status>  (5) 
1

>  <s_m_source_file>  (5) 
/var/tmp/pbs.5076255.sched01/tmp98udq4tg/0t315e5yz.sdf

>  <i_m_source_file_index>  (5) 
2

>  <i_lp_mmshare_version>  (5) 
48012

>  <i_f3d_flags>  (5) 
0

>  <s_epik_input>  (5) 
W0NIM11bQ0BdMTJbQ0BdMyhbQ0gzXSlDKD1bQ0gyXSlbQ0BIXShbQ0gyXTEpW0NASF0oQyhPMikoW0NIM10pW0NIM10pW0NASF0zW09IXQ==

>  <s_epik_cmdline>  (5) 
J2VwaWtfcHl0aG9uJywgJy1waHQnLCAnMi4wJywgJy1waCcsICc3LjAnLCAnLXRuJywgJzgnLCAnLW1hJywgJzIwMCcsICctaW1hZScsICc8aW5maWxlLm1hZT4nLCAnLW9tYWUnLCAnPG91dGZpbGUubWFlPic=

>  <r_lp_tautomer_probability>  (5) 
1

>  <r_epik_Ionization_Penalty>  (5) 
1.02392e-07

>  <r_epik_Ionization_Penalty_Charging>  (5) 
0

>  <r_epik_Ionization_Penalty_Neutral>  (5) 
1.02392e-07

>  <r_epik_State_Penalty>  (5) 
-0

>  <r_epik_Charging_Adjusted_Penalty>  (5) 
0

>  <i_epik_Tot_Q>  (5) 
0

>  <i_epik_Tot_abs_Q>  (5) 
0

>  <s_lp_Force_Field>  (5) 
OPLS3e

>  <r_lp_Energy>  (5) 
52.6243

>  <b_lp_Chiralities_Consistent>  (5) 
1

>  <s_lp_Variant>  (5) 
1:0-1

>  <s_i_glide_gridfile>  (5) 
pfpi4k_grid

>  <i_i_glide_lignum>  (5) 
2

>  <i_i_glide_rotatable_bonds>  (5) 
1

>  <r_i_docking_score>  (5) 
-3.66255

>  <r_i_glide_ligand_efficiency>  (5) 
-0.24417

>  <r_i_glide_ligand_efficiency_sa>  (5) 
-0.602174

>  <r_i_glide_ligand_efficiency_ln>  (5) 
-0.987728

>  <r_i_glide_gscore>  (5) 
-3.66255

>  <r_i_glide_lipo>  (5) 
-0.617958

>  <r_i_glide_hbond>  (5) 
0

>  <r_i_glide_metal>  (5) 
-0

>  <r_i_glide_rewards>  (5) 
-1.98889

>  <r_i_glide_evdw>  (5) 
-18.8844

>  <r_i_glide_ecoul>  (5) 
-0.743214

>  <r_i_glide_erotb>  (5) 
0

>  <r_i_glide_esite>  (5) 
0

>  <r_i_glide_emodel>  (5) 
-26.3781

>  <r_i_glide_energy>  (5) 
-19.6276

>  <r_i_glide_einternal>  (5) 
0.0374751

>  <r_i_glide_intrahb_reward>  (5) 
-0

>  <i_i_glide_confnum>  (5) 
1

>  <i_i_glide_posenum>  (5) 
1

>  <r_i_glide_eff_state_penalty>  (5) 
0

>  <ligand_id>  (5) 
1

>  <original_smiles>  (5) 
C=C1C2CC3(C)OC(C)(C)C2C(O)C13C

>  <smiles>  (5) 
[H]OC1([H])C2([H])C3([H])C(=C([H])[H])C1(C([H])([H])[H])C(C([H])([H])[H])(OC2(C([H])([H])[H])C([H])([H])[H])C3([H])[H]

$$$$
1:0:2
     RDKit          3D

 35 37  0  0  1  0  0  0  0  0999 V2000
    5.0257   -4.3084    2.4847 C   0  0  0  0  0  0  0  0  0  0  0  0
    4.6159   -3.6729    1.3755 C   0  0  0  0  0  0  0  0  0  0  0  0
    5.2981   -3.4660    0.0695 C   0  0  2  0  0  0  0  0  0  0  0  0
    5.4327   -1.9427    0.2480 C   0  0  0  0  0  0  0  0  0  0  0  0
    3.9324   -1.6126    0.3511 C   0  0  1  0  0  0  0  0  0  0  0  0
    3.6397   -0.2703    1.0301 C   0  0  0  0  0  0  0  0  0  0  0  0
    3.5366   -1.4900   -1.0382 O   0  0  0  0  0  0  0  0  0  0  0  0
    3.8424   -2.6005   -1.9114 C   0  0  0  0  0  0  0  0  0  0  0  0
    2.6178   -2.7652   -2.8455 C   0  0  0  0  0  0  0  0  0  0  0  0
    5.0295   -2.2822   -2.8344 C   0  0  0  0  0  0  0  0  0  0  0  0
    4.1360   -3.8074   -0.9685 C   0  0  2  0  0  0  0  0  0  0  0  0
    2.8813   -3.8863   -0.0585 C   0  0  1  0  0  0  0  0  0  0  0  0
    2.6178   -5.2163    0.3618 O   0  0  0  0  0  0  0  0  0  0  0  0
    3.3537   -2.9358    1.0510 C   0  0  1  0  0  0  0  0  0  0  0  0
    2.3565   -2.7351    2.2060 C   0  0  0  0  0  0  0  0  0  0  0  0
    4.3991   -4.3679    3.3606 H   0  0  0  0  0  0  0  0  0  0  0  0
    5.9908   -4.7867    2.5266 H   0  0  0  0  0  0  0  0  0  0  0  0
    6.2323   -4.0136   -0.0464 H   0  0  0  0  0  0  0  0  0  0  0  0
    5.9693   -1.6945    1.1685 H   0  0  0  0  0  0  0  0  0  0  0  0
    5.9402   -1.4015   -0.5472 H   0  0  0  0  0  0  0  0  0  0  0  0
    3.9698   -0.2507    2.0691 H   0  0  0  0  0  0  0  0  0  0  0  0
    2.5707   -0.0564    0.9999 H   0  0  0  0  0  0  0  0  0  0  0  0
    4.1509    0.5318    0.4958 H   0  0  0  0  0  0  0  0  0  0  0  0
    2.6320   -3.7286   -3.3585 H   0  0  0  0  0  0  0  0  0  0  0  0
    2.6117   -1.9817   -3.6058 H   0  0  0  0  0  0  0  0  0  0  0  0
    1.6635   -2.6624   -2.3317 H   0  0  0  0  0  0  0  0  0  0  0  0
    5.0089   -2.9126   -3.7225 H   0  0  0  0  0  0  0  0  0  0  0  0
    6.0012   -2.4538   -2.3785 H   0  0  0  0  0  0  0  0  0  0  0  0
    4.9860   -1.2418   -3.1588 H   0  0  0  0  0  0  0  0  0  0  0  0
    4.3353   -4.7202   -1.5252 H   0  0  0  0  0  0  0  0  0  0  0  0
    1.9539   -3.5331   -0.4953 H   0  0  0  0  0  0  0  0  0  0  0  0
    2.6246   -5.7621   -0.4127 H   0  0  0  0  0  0  0  0  0  0  0  0
    1.4667   -2.2131    1.8522 H   0  0  0  0  0  0  0  0  0  0  0  0
    2.7927   -2.1480    3.0111 H   0  0  0  0  0  0  0  0  0  0  0  0
    2.0353   -3.6867    2.6270 H   0  0  0  0  0  0  0  0  0  0  0  0
  1  2  2  0
  1 16  1  0
  1 17  1  0
  2 14  1  0
  2  3  1  0
  3 11  1  0
  3  4  1  0
  3 18  1  6
  4  5  1  0
  4 19  1  0
  4 20  1  0
  5 14  1  0
  5  6  1  1
  5  7  1  0
  6 21  1  0
  6 22  1  0
  6 23  1  0
  7  8  1  0
  8  9  1  0
  8 10  1  0
  8 11  1  0
  9 24  1  0
  9 25  1  0
  9 26  1  0
 10 27  1  0
 10 28  1  0
 10 29  1  0
 11 12  1  0
 11 30  1  6
 12 13  1  0
 12 14  1  0
 12 31  1  6
 13 32  1  0
 14 15  1  1
 15 33  1  0
 15 34  1  0
 15 35  1  0
M  END
>  <i_m_ct_stereo_status>  (6) 
1

>  <s_m_source_file>  (6) 
/var/tmp/pbs.5076255.sched01/tmp98udq4tg/0t315e5yz.sdf

>  <i_m_source_file_index>  (6) 
2

>  <i_lp_mmshare_version>  (6) 
48012

>  <i_f3d_flags>  (6) 
0

>  <s_epik_input>  (6) 
W0NIM11bQ0BdMTJbQ0BdMyhbQ0gzXSlDKD1bQ0gyXSlbQ0BIXShbQ0gyXTEpW0NASF0oQyhPMikoW0NIM10pW0NIM10pW0NASF0zW09IXQ==

>  <s_epik_cmdline>  (6) 
J2VwaWtfcHl0aG9uJywgJy1waHQnLCAnMi4wJywgJy1waCcsICc3LjAnLCAnLXRuJywgJzgnLCAnLW1hJywgJzIwMCcsICctaW1hZScsICc8aW5maWxlLm1hZT4nLCAnLW9tYWUnLCAnPG91dGZpbGUubWFlPic=

>  <r_lp_tautomer_probability>  (6) 
1

>  <r_epik_Ionization_Penalty>  (6) 
1.02392e-07

>  <r_epik_Ionization_Penalty_Charging>  (6) 
0

>  <r_epik_Ionization_Penalty_Neutral>  (6) 
1.02392e-07

>  <r_epik_State_Penalty>  (6) 
-0

>  <r_epik_Charging_Adjusted_Penalty>  (6) 
0

>  <i_epik_Tot_Q>  (6) 
0

>  <i_epik_Tot_abs_Q>  (6) 
0

>  <s_lp_Force_Field>  (6) 
OPLS3e

>  <r_lp_Energy>  (6) 
52.6243

>  <b_lp_Chiralities_Consistent>  (6) 
1

>  <s_lp_Variant>  (6) 
1:0-1

>  <s_i_glide_gridfile>  (6) 
pfpi4k_grid

>  <i_i_glide_lignum>  (6) 
2

>  <i_i_glide_rotatable_bonds>  (6) 
1

>  <r_i_docking_score>  (6) 
-3.61531

>  <r_i_glide_ligand_efficiency>  (6) 
-0.241021

>  <r_i_glide_ligand_efficiency_sa>  (6) 
-0.594409

>  <r_i_glide_ligand_efficiency_ln>  (6) 
-0.974991

>  <r_i_glide_gscore>  (6) 
-3.61531

>  <r_i_glide_lipo>  (6) 
-0.236603

>  <r_i_glide_hbond>  (6) 
-0.168084

>  <r_i_glide_metal>  (6) 
-0

>  <r_i_glide_rewards>  (6) 
-1.98889

>  <r_i_glide_evdw>  (6) 
-19.9543

>  <r_i_glide_ecoul>  (6) 
-1.49351

>  <r_i_glide_erotb>  (6) 
0

>  <r_i_glide_esite>  (6) 
0

>  <r_i_glide_emodel>  (6) 
-27.8253

>  <r_i_glide_energy>  (6) 
-21.4478

>  <r_i_glide_einternal>  (6) 
0.528956

>  <r_i_glide_intrahb_reward>  (6) 
-0

>  <i_i_glide_confnum>  (6) 
1

>  <i_i_glide_posenum>  (6) 
12

>  <r_i_glide_eff_state_penalty>  (6) 
0

>  <ligand_id>  (6) 
1

>  <original_smiles>  (6) 
C=C1C2CC3(C)OC(C)(C)C2C(O)C13C

>  <smiles>  (6) 
[H]OC1([H])C2([H])C3([H])C(=C([H])[H])C1(C([H])([H])[H])C(C([H])([H])[H])(OC2(C([H])([H])[H])C([H])([H])[H])C3([H])[H]

$$$$
2:0:0
     RDKit          3D

 75 81  0  0  1  0  0  0  0  0999 V2000
    6.2347   -5.7338    4.9833 C   0  0  0  0  0  0  0  0  0  0  0  0
    5.0627   -4.7976    5.2359 C   0  0  0  0  0  0  0  0  0  0  0  0
    3.7537   -5.0913    5.1311 C   0  0  0  0  0  0  0  0  0  0  0  0
    3.1174   -6.2858    4.4494 C   0  0  1  0  0  0  0  0  0  0  0  0
    2.0052   -6.7932    5.4017 C   0  0  0  0  0  0  0  0  0  0  0  0
    0.8864   -5.7204    5.5446 C   0  0  0  0  0  0  0  0  0  0  0  0
    1.3420   -4.3713    4.9201 C   0  0  2  0  0  0  0  0  0  0  0  0
    1.5123   -4.5639    3.4206 C   0  0  0  0  0  0  0  0  0  0  0  0
    2.4760   -5.7480    3.1149 C   0  0  2  0  0  0  0  0  0  0  0  0
    1.6426   -6.8979    2.4678 C   0  0  0  0  0  0  0  0  0  0  0  0
    3.4767   -5.2752    2.0184 C   0  0  0  0  0  0  0  0  0  0  0  0
    4.7218   -4.3182    2.2084 C   0  0  2  0  0  0  0  0  0  0  0  0
    4.6106   -2.8823    2.8619 C   0  0  1  0  0  0  0  0  0  0  0  0
    3.8617   -2.1236    1.7391 C   0  0  1  0  0  0  0  0  0  0  0  0
    3.6366   -0.7368    1.8979 O   0  0  0  0  0  0  0  0  0  0  0  0
    4.7107   -2.4704    0.4788 C   0  0  2  0  0  0  0  0  0  0  0  0
    5.8048   -1.3862    0.2382 C   0  0  0  0  0  0  0  0  0  0  0  0
    3.8457   -2.6759   -0.7904 C   0  0  1  0  0  0  0  0  0  0  0  0
    3.5163   -1.4291   -1.6273 C   0  0  0  0  0  0  0  0  0  0  0  0
    4.5867   -3.7563   -1.5656 C   0  0  0  0  0  0  0  0  0  0  0  0
    4.9686   -4.7560   -0.4748 C   0  0  0  0  0  0  0  0  0  0  0  0
    5.3156   -3.9038    0.7887 C   0  0  2  0  0  0  0  0  0  0  0  0
    6.8724   -3.9566    0.8799 C   0  0  0  0  0  0  0  0  0  0  0  0
    4.5974   -2.4365    4.4187 C   0  0  2  0  0  0  0  0  0  0  0  0
    5.1542   -0.9663    4.3581 C   0  0  0  0  0  0  0  0  0  0  0  0
    5.3884   -3.3199    5.4550 C   0  0  1  0  0  0  0  0  0  0  0  0
    4.4962   -2.7074    6.5467 C   0  0  1  0  0  0  0  0  0  0  0  0
    4.8874   -1.5321    7.2265 O   0  0  0  0  0  0  0  0  0  0  0  0
    3.3864   -2.6507    5.4461 C   0  0  1  0  0  0  0  0  0  0  0  0
    2.3361   -1.5403    5.5847 C   0  0  0  0  0  0  0  0  0  0  0  0
    2.7167   -4.0470    5.5393 C   0  0  2  0  0  0  0  0  0  0  0  0
    6.9692   -5.2681    4.3292 H   0  0  0  0  0  0  0  0  0  0  0  0
    5.9309   -6.6777    4.5323 H   0  0  0  0  0  0  0  0  0  0  0  0
    6.7265   -5.9541    5.9299 H   0  0  0  0  0  0  0  0  0  0  0  0
    3.8368   -7.0773    4.2493 H   0  0  0  0  0  0  0  0  0  0  0  0
    1.5876   -7.7453    5.0719 H   0  0  0  0  0  0  0  0  0  0  0  0
    2.4458   -6.9938    6.3798 H   0  0  0  0  0  0  0  0  0  0  0  0
   -0.0357   -6.0642    5.0755 H   0  0  0  0  0  0  0  0  0  0  0  0
    0.6515   -5.5861    6.6027 H   0  0  0  0  0  0  0  0  0  0  0  0
    0.6087   -3.5929    5.1295 H   0  0  0  0  0  0  0  0  0  0  0  0
    0.5496   -4.7145    2.9425 H   0  0  0  0  0  0  0  0  0  0  0  0
    1.8846   -3.6270    3.0255 H   0  0  0  0  0  0  0  0  0  0  0  0
    1.2763   -6.6392    1.4717 H   0  0  0  0  0  0  0  0  0  0  0  0
    0.7604   -7.1631    3.0531 H   0  0  0  0  0  0  0  0  0  0  0  0
    2.2360   -7.8083    2.3640 H   0  0  0  0  0  0  0  0  0  0  0  0
    3.8928   -6.2019    1.6179 H   0  0  0  0  0  0  0  0  0  0  0  0
    2.8479   -4.8671    1.2225 H   0  0  0  0  0  0  0  0  0  0  0  0
    5.4807   -4.9094    2.7022 H   0  0  0  0  0  0  0  0  0  0  0  0
    5.6399   -2.5905    2.7005 H   0  0  0  0  0  0  0  0  0  0  0  0
    2.8671   -2.5389    1.6235 H   0  0  0  0  0  0  0  0  0  0  0  0
    3.0055   -0.4740    1.2476 H   0  0  0  0  0  0  0  0  0  0  0  0
    6.4212   -1.6341   -0.6206 H   0  0  0  0  0  0  0  0  0  0  0  0
    6.4633   -1.2550    1.0979 H   0  0  0  0  0  0  0  0  0  0  0  0
    5.3723   -0.4042    0.0442 H   0  0  0  0  0  0  0  0  0  0  0  0
    2.8884   -3.1112   -0.4984 H   0  0  0  0  0  0  0  0  0  0  0  0
    4.3994   -0.9799   -2.0835 H   0  0  0  0  0  0  0  0  0  0  0  0
    3.0313   -0.6751   -1.0087 H   0  0  0  0  0  0  0  0  0  0  0  0
    2.8247   -1.6783   -2.4333 H   0  0  0  0  0  0  0  0  0  0  0  0
    3.9689   -4.1998   -2.3431 H   0  0  0  0  0  0  0  0  0  0  0  0
    5.4754   -3.3505   -2.0520 H   0  0  0  0  0  0  0  0  0  0  0  0
    4.1346   -5.4445   -0.3722 H   0  0  0  0  0  0  0  0  0  0  0  0
    5.8092   -5.3782   -0.7743 H   0  0  0  0  0  0  0  0  0  0  0  0
    7.3464   -3.6548   -0.0540 H   0  0  0  0  0  0  0  0  0  0  0  0
    7.2058   -4.9749    1.0841 H   0  0  0  0  0  0  0  0  0  0  0  0
    7.2977   -3.3401    1.6690 H   0  0  0  0  0  0  0  0  0  0  0  0
    5.7908   -0.6942    5.1952 H   0  0  0  0  0  0  0  0  0  0  0  0
    4.3576   -0.2269    4.2962 H   0  0  0  0  0  0  0  0  0  0  0  0
    5.8050   -0.7593    3.5087 H   0  0  0  0  0  0  0  0  0  0  0  0
    6.4477   -3.1021    5.5692 H   0  0  0  0  0  0  0  0  0  0  0  0
    4.3153   -3.4421    7.3338 H   0  0  0  0  0  0  0  0  0  0  0  0
    5.0560   -0.8714    6.5756 H   0  0  0  0  0  0  0  0  0  0  0  0
    1.6382   -1.7396    6.3979 H   0  0  0  0  0  0  0  0  0  0  0  0
    1.7687   -1.4133    4.6619 H   0  0  0  0  0  0  0  0  0  0  0  0
    2.7995   -0.5813    5.8145 H   0  0  0  0  0  0  0  0  0  0  0  0
    2.5317   -4.2356    6.5998 H   0  0  0  0  0  0  0  0  0  0  0  0
  1  2  1  0
  1 32  1  0
  1 33  1  0
  1 34  1  0
  2 26  1  0
  2  3  2  0
  3 31  1  0
  3  4  1  0
  4  9  1  0
  4  5  1  0
  4 35  1  6
  5  6  1  0
  5 36  1  0
  5 37  1  0
  6  7  1  0
  6 38  1  0
  6 39  1  0
  7 31  1  0
  7  8  1  0
  7 40  1  6
  8  9  1  0
  8 41  1  0
  8 42  1  0
  9 10  1  6
  9 11  1  0
 10 43  1  0
 10 44  1  0
 10 45  1  0
 11 12  1  0
 11 46  1  0
 11 47  1  0
 12 22  1  0
 12 13  1  0
 12 48  1  1
 13 14  1  0
 13 24  1  0
 13 49  1  6
 14 15  1  0
 14 16  1  0
 14 50  1  6
 15 51  1  0
 16 22  1  0
 16 17  1  6
 16 18  1  0
 17 52  1  0
 17 53  1  0
 17 54  1  0
 18 19  1  0
 18 20  1  0
 18 55  1  1
 19 56  1  0
 19 57  1  0
 19 58  1  0
 20 21  1  0
 20 59  1  0
 20 60  1  0
 21 22  1  0
 21 61  1  0
 21 62  1  0
 22 23  1  1
 23 63  1  0
 23 64  1  0
 23 65  1  0
 24 29  1  0
 24 25  1  6
 24 26  1  0
 25 66  1  0
 25 67  1  0
 25 68  1  0
 26 27  1  0
 26 69  1  1
 27 28  1  0
 27 29  1  0
 27 70  1  1
 28 71  1  0
 29 30  1  1
 29 31  1  0
 30 72  1  0
 30 73  1  0
 30 74  1  0
 31 75  1  1
M  END
>  <i_m_ct_stereo_status>  (7) 
1

>  <s_m_source_file>  (7) 
/var/tmp/pbs.5076255.sched01/tmp98udq4tg/0t315e5yz.sdf

>  <i_m_source_file_index>  (7) 
3

>  <i_lp_mmshare_version>  (7) 
48012

>  <i_f3d_flags>  (7) 
0

>  <s_epik_input>  (7) 
W0NIM11bQ0BdMTJbQ0BIXTNDNFtDQEhdKFtDQEBIXShbQ0gyXTEpW0NIMl1bQ0gyXTMpW0NAXTUoW0NIM10pW0NAQF0oW0NIM10pKFtDQEhdKEM9NFtDSDNdKVtDQEhdNVtPSF0pW0NASF02W0NAQEhdKFtDSDJdMilbQ0BdNyhbQ0gzXSlbQ0BdKFtDSDNdKShbQ0BASF02W09IXSlbQ0BASF0oW0NIM10pW0NIMl1bQ0gyXTc=

>  <s_epik_cmdline>  (7) 
J2VwaWtfcHl0aG9uJywgJy1waHQnLCAnMi4wJywgJy1waCcsICc3LjAnLCAnLXRuJywgJzgnLCAnLW1hJywgJzIwMCcsICctaW1hZScsICc8aW5maWxlLm1hZT4nLCAnLW9tYWUnLCAnPG91dGZpbGUubWFlPic=

>  <r_lp_tautomer_probability>  (7) 
1

>  <r_epik_Ionization_Penalty>  (7) 
3.43078e-06

>  <r_epik_Ionization_Penalty_Charging>  (7) 
0

>  <r_epik_Ionization_Penalty_Neutral>  (7) 
3.43078e-06

>  <r_epik_State_Penalty>  (7) 
-0

>  <r_epik_Charging_Adjusted_Penalty>  (7) 
0

>  <i_epik_Tot_Q>  (7) 
0

>  <i_epik_Tot_abs_Q>  (7) 
0

>  <s_lp_Force_Field>  (7) 
OPLS3e

>  <r_lp_Energy>  (7) 
146.238

>  <b_lp_Chiralities_Consistent>  (7) 
1

>  <s_lp_Variant>  (7) 
2:0-1

>  <s_i_glide_gridfile>  (7) 
pfpi4k_grid

>  <i_i_glide_lignum>  (7) 
3

>  <i_i_glide_rotatable_bonds>  (7) 
2

>  <r_i_docking_score>  (7) 
-1.84852

>  <r_i_glide_ligand_efficiency>  (7) 
-0.0596295

>  <r_i_glide_ligand_efficiency_sa>  (7) 
-0.187319

>  <r_i_glide_ligand_efficiency_ln>  (7) 
-0.416897

>  <r_i_glide_gscore>  (7) 
-1.84852

>  <r_i_glide_lipo>  (7) 
-0.364673

>  <r_i_glide_hbond>  (7) 
0

>  <r_i_glide_metal>  (7) 
-0

>  <r_i_glide_rewards>  (7) 
-0.513692

>  <r_i_glide_evdw>  (7) 
-16.8909

>  <r_i_glide_ecoul>  (7) 
-0.837376

>  <r_i_glide_erotb>  (7) 
0

>  <r_i_glide_esite>  (7) 
0

>  <r_i_glide_emodel>  (7) 
-19.5398

>  <r_i_glide_energy>  (7) 
-17.7282

>  <r_i_glide_einternal>  (7) 
0.397322

>  <r_i_glide_intrahb_reward>  (7) 
-0

>  <i_i_glide_confnum>  (7) 
2

>  <i_i_glide_posenum>  (7) 
17

>  <r_i_glide_eff_state_penalty>  (7) 
0

>  <ligand_id>  (7) 
2

>  <original_smiles>  (7) 
CC1=C2C3CCC4CC3(C)CC3C(C(O)C5(C)C(C)CCC35C)C3(C)C1C(O)C3(C)C24

>  <smiles>  (7) 
[H]OC1([H])C2([H])C(C([H])([H])[H])=C3C4([H])C([H])([H])C([H])([H])C5([H])C([H])([H])C4(C([H])([H])[H])C([H])([H])C4([H])C([H])(C([H])(O[H])C6(C([H])([H])[H])C([H])(C([H])([H])[H])C([H])([H])C([H])([H])C46C([H])([H])[H])C2(C([H])([H])[H])C1(C([H])([H])[H])C35[H]

$$$$
2:0:1
     RDKit          3D

 75 81  0  0  1  0  0  0  0  0999 V2000
    4.6599   -9.1935    1.4634 C   0  0  0  0  0  0  0  0  0  0  0  0
    4.0800   -8.6287    2.7489 C   0  0  0  0  0  0  0  0  0  0  0  0
    2.7755   -8.4413    3.0446 C   0  0  0  0  0  0  0  0  0  0  0  0
    1.5995   -8.4388    2.0921 C   0  0  1  0  0  0  0  0  0  0  0  0
    0.4818   -9.2608    2.7799 C   0  0  0  0  0  0  0  0  0  0  0  0
    0.0018   -8.5421    4.0741 C   0  0  0  0  0  0  0  0  0  0  0  0
    0.9633   -7.3740    4.4359 C   0  0  2  0  0  0  0  0  0  0  0  0
    0.8744   -6.3150    3.3482 C   0  0  0  0  0  0  0  0  0  0  0  0
    1.1508   -6.9332    1.9432 C   0  0  2  0  0  0  0  0  0  0  0  0
   -0.1748   -6.9029    1.1275 C   0  0  0  0  0  0  0  0  0  0  0  0
    2.1464   -5.9942    1.1925 C   0  0  0  0  0  0  0  0  0  0  0  0
    3.7034   -5.8658    1.4309 C   0  0  2  0  0  0  0  0  0  0  0  0
    4.3283   -5.5573    2.8509 C   0  0  1  0  0  0  0  0  0  0  0  0
    3.9093   -4.0767    3.0274 C   0  0  1  0  0  0  0  0  0  0  0  0
    4.3810   -3.3809    4.1618 O   0  0  0  0  0  0  0  0  0  0  0  0
    4.3721   -3.4373    1.6831 C   0  0  2  0  0  0  0  0  0  0  0  0
    5.8124   -2.8576    1.8124 C   0  0  0  0  0  0  0  0  0  0  0  0
    3.3861   -2.3598    1.1596 C   0  0  1  0  0  0  0  0  0  0  0  0
    3.5883   -0.9184    1.6608 C   0  0  0  0  0  0  0  0  0  0  0  0
    3.4674   -2.4996   -0.3545 C   0  0  0  0  0  0  0  0  0  0  0  0
    3.4626   -4.0080   -0.5650 C   0  0  0  0  0  0  0  0  0  0  0  0
    4.2777   -4.6157    0.6257 C   0  0  2  0  0  0  0  0  0  0  0  0
    5.6345   -5.0439   -0.0061 C   0  0  0  0  0  0  0  0  0  0  0  0
    4.6749   -6.5475    4.0819 C   0  0  2  0  0  0  0  0  0  0  0  0
    5.8391   -5.7865    4.8185 C   0  0  0  0  0  0  0  0  0  0  0  0
    5.0677   -8.0329    3.7528 C   0  0  1  0  0  0  0  0  0  0  0  0
    4.6757   -8.3830    5.2014 C   0  0  1  0  0  0  0  0  0  0  0  0
    5.6364   -8.3351    6.2398 O   0  0  0  0  0  0  0  0  0  0  0  0
    3.6144   -7.2465    5.0593 C   0  0  1  0  0  0  0  0  0  0  0  0
    3.2129   -6.5140    6.3471 C   0  0  0  0  0  0  0  0  0  0  0  0
    2.3868   -7.9670    4.4409 C   0  0  2  0  0  0  0  0  0  0  0  0
    5.4610   -8.5601    1.0860 H   0  0  0  0  0  0  0  0  0  0  0  0
    3.9149   -9.3073    0.6773 H   0  0  0  0  0  0  0  0  0  0  0  0
    5.0808  -10.1785    1.6624 H   0  0  0  0  0  0  0  0  0  0  0  0
    1.8508   -8.8752    1.1295 H   0  0  0  0  0  0  0  0  0  0  0  0
   -0.3568   -9.4529    2.1103 H   0  0  0  0  0  0  0  0  0  0  0  0
    0.8733  -10.2478    3.0339 H   0  0  0  0  0  0  0  0  0  0  0  0
   -1.0185   -8.1760    3.9539 H   0  0  0  0  0  0  0  0  0  0  0  0
   -0.0410   -9.2669    4.8913 H   0  0  0  0  0  0  0  0  0  0  0  0
    0.6966   -6.9559    5.4043 H   0  0  0  0  0  0  0  0  0  0  0  0
   -0.0957   -5.8234    3.3901 H   0  0  0  0  0  0  0  0  0  0  0  0
    1.5984   -5.5488    3.5982 H   0  0  0  0  0  0  0  0  0  0  0  0
   -0.4947   -5.8968    0.8666 H   0  0  0  0  0  0  0  0  0  0  0  0
   -1.0044   -7.3506    1.6754 H   0  0  0  0  0  0  0  0  0  0  0  0
   -0.0755   -7.4555    0.1957 H   0  0  0  0  0  0  0  0  0  0  0  0
    2.0445   -6.2609    0.1399 H   0  0  0  0  0  0  0  0  0  0  0  0
    1.7177   -4.9960    1.2802 H   0  0  0  0  0  0  0  0  0  0  0  0
    4.1464   -6.7523    0.9974 H   0  0  0  0  0  0  0  0  0  0  0  0
    5.3563   -5.4761    2.5207 H   0  0  0  0  0  0  0  0  0  0  0  0
    2.8294   -4.0133    3.0978 H   0  0  0  0  0  0  0  0  0  0  0  0
    3.9918   -2.5228    4.1544 H   0  0  0  0  0  0  0  0  0  0  0  0
    6.1588   -2.4278    0.8765 H   0  0  0  0  0  0  0  0  0  0  0  0
    6.5374   -3.6112    2.1133 H   0  0  0  0  0  0  0  0  0  0  0  0
    5.8688   -2.0657    2.5587 H   0  0  0  0  0  0  0  0  0  0  0  0
    2.3701   -2.6470    1.4337 H   0  0  0  0  0  0  0  0  0  0  0  0
    4.5290   -0.4862    1.3182 H   0  0  0  0  0  0  0  0  0  0  0  0
    3.5709   -0.8731    2.7490 H   0  0  0  0  0  0  0  0  0  0  0  0
    2.7880   -0.2762    1.2927 H   0  0  0  0  0  0  0  0  0  0  0  0
    2.6349   -2.0170   -0.8672 H   0  0  0  0  0  0  0  0  0  0  0  0
    4.3905   -2.0610   -0.7381 H   0  0  0  0  0  0  0  0  0  0  0  0
    2.4246   -4.3143   -0.6313 H   0  0  0  0  0  0  0  0  0  0  0  0
    3.8915   -4.2553   -1.5362 H   0  0  0  0  0  0  0  0  0  0  0  0
    6.0987   -4.2293   -0.5610 H   0  0  0  0  0  0  0  0  0  0  0  0
    5.4586   -5.8534   -0.7151 H   0  0  0  0  0  0  0  0  0  0  0  0
    6.3761   -5.4094    0.7034 H   0  0  0  0  0  0  0  0  0  0  0  0
    6.5991   -6.4353    5.2445 H   0  0  0  0  0  0  0  0  0  0  0  0
    5.4718   -5.1568    5.6286 H   0  0  0  0  0  0  0  0  0  0  0  0
    6.4337   -5.1336    4.1826 H   0  0  0  0  0  0  0  0  0  0  0  0
    6.1155   -8.2001    3.5130 H   0  0  0  0  0  0  0  0  0  0  0  0
    4.2518   -9.3852    5.2510 H   0  0  0  0  0  0  0  0  0  0  0  0
    6.0429   -9.1875    6.2732 H   0  0  0  0  0  0  0  0  0  0  0  0
    2.5877   -7.1327    6.9906 H   0  0  0  0  0  0  0  0  0  0  0  0
    2.6815   -5.5863    6.1328 H   0  0  0  0  0  0  0  0  0  0  0  0
    4.0865   -6.2526    6.9451 H   0  0  0  0  0  0  0  0  0  0  0  0
    2.2418   -8.8825    5.0176 H   0  0  0  0  0  0  0  0  0  0  0  0
  1  2  1  0
  1 32  1  0
  1 33  1  0
  1 34  1  0
  2 26  1  0
  2  3  2  0
  3 31  1  0
  3  4  1  0
  4  9  1  0
  4  5  1  0
  4 35  1  6
  5  6  1  0
  5 36  1  0
  5 37  1  0
  6  7  1  0
  6 38  1  0
  6 39  1  0
  7 31  1  0
  7  8  1  0
  7 40  1  1
  8  9  1  0
  8 41  1  0
  8 42  1  0
  9 10  1  6
  9 11  1  0
 10 43  1  0
 10 44  1  0
 10 45  1  0
 11 12  1  0
 11 46  1  0
 11 47  1  0
 12 22  1  0
 12 13  1  0
 12 48  1  6
 13 14  1  0
 13 24  1  0
 13 49  1  6
 14 15  1  0
 14 16  1  0
 14 50  1  6
 15 51  1  0
 16 22  1  0
 16 17  1  1
 16 18  1  0
 17 52  1  0
 17 53  1  0
 17 54  1  0
 18 19  1  0
 18 20  1  0
 18 55  1  1
 19 56  1  0
 19 57  1  0
 19 58  1  0
 20 21  1  0
 20 59  1  0
 20 60  1  0
 21 22  1  0
 21 61  1  0
 21 62  1  0
 22 23  1  6
 23 63  1  0
 23 64  1  0
 23 65  1  0
 24 29  1  0
 24 25  1  1
 24 26  1  0
 25 66  1  0
 25 67  1  0
 25 68  1  0
 26 27  1  0
 26 69  1  6
 27 28  1  0
 27 29  1  0
 27 70  1  6
 28 71  1  0
 29 30  1  1
 29 31  1  0
 30 72  1  0
 30 73  1  0
 30 74  1  0
 31 75  1  1
M  END
>  <i_m_ct_stereo_status>  (8) 
1

>  <s_m_source_file>  (8) 
/var/tmp/pbs.5076255.sched01/tmp98udq4tg/0t315e5yz.sdf

>  <i_m_source_file_index>  (8) 
3

>  <i_lp_mmshare_version>  (8) 
48012

>  <i_f3d_flags>  (8) 
0

>  <s_epik_input>  (8) 
W0NIM11bQ0BdMTJbQ0BIXTNDNFtDQEhdKFtDQEBIXShbQ0gyXTEpW0NIMl1bQ0gyXTMpW0NAXTUoW0NIM10pW0NAQF0oW0NIM10pKFtDQEhdKEM9NFtDSDNdKVtDQEhdNVtPSF0pW0NASF02W0NAQEhdKFtDSDJdMilbQ0BdNyhbQ0gzXSlbQ0BdKFtDSDNdKShbQ0BASF02W09IXSlbQ0BASF0oW0NIM10pW0NIMl1bQ0gyXTc=

>  <s_epik_cmdline>  (8) 
J2VwaWtfcHl0aG9uJywgJy1waHQnLCAnMi4wJywgJy1waCcsICc3LjAnLCAnLXRuJywgJzgnLCAnLW1hJywgJzIwMCcsICctaW1hZScsICc8aW5maWxlLm1hZT4nLCAnLW9tYWUnLCAnPG91dGZpbGUubWFlPic=

>  <r_lp_tautomer_probability>  (8) 
1

>  <r_epik_Ionization_Penalty>  (8) 
3.43078e-06

>  <r_epik_Ionization_Penalty_Charging>  (8) 
0

>  <r_epik_Ionization_Penalty_Neutral>  (8) 
3.43078e-06

>  <r_epik_State_Penalty>  (8) 
-0

>  <r_epik_Charging_Adjusted_Penalty>  (8) 
0

>  <i_epik_Tot_Q>  (8) 
0

>  <i_epik_Tot_abs_Q>  (8) 
0

>  <s_lp_Force_Field>  (8) 
OPLS3e

>  <r_lp_Energy>  (8) 
146.238

>  <b_lp_Chiralities_Consistent>  (8) 
1

>  <s_lp_Variant>  (8) 
2:0-1

>  <s_i_glide_gridfile>  (8) 
pfpi4k_grid

>  <i_i_glide_lignum>  (8) 
3

>  <i_i_glide_rotatable_bonds>  (8) 
2

>  <r_i_docking_score>  (8) 
-1.81178

>  <r_i_glide_ligand_efficiency>  (8) 
-0.0584444

>  <r_i_glide_ligand_efficiency_sa>  (8) 
-0.183596

>  <r_i_glide_ligand_efficiency_ln>  (8) 
-0.408611

>  <r_i_glide_gscore>  (8) 
-1.81178

>  <r_i_glide_lipo>  (8) 
-0.201818

>  <r_i_glide_hbond>  (8) 
0

>  <r_i_glide_metal>  (8) 
-0

>  <r_i_glide_rewards>  (8) 
-0.513692

>  <r_i_glide_evdw>  (8) 
-20.7672

>  <r_i_glide_ecoul>  (8) 
-0.386029

>  <r_i_glide_erotb>  (8) 
0

>  <r_i_glide_esite>  (8) 
0

>  <r_i_glide_emodel>  (8) 
-22.3475

>  <r_i_glide_energy>  (8) 
-21.1532

>  <r_i_glide_einternal>  (8) 
1.54619

>  <r_i_glide_intrahb_reward>  (8) 
-0

>  <i_i_glide_confnum>  (8) 
1

>  <i_i_glide_posenum>  (8) 
8

>  <r_i_glide_eff_state_penalty>  (8) 
0

>  <ligand_id>  (8) 
2

>  <original_smiles>  (8) 
CC1=C2C3CCC4CC3(C)CC3C(C(O)C5(C)C(C)CCC35C)C3(C)C1C(O)C3(C)C24

>  <smiles>  (8) 
[H]OC1([H])C2([H])C(C([H])([H])[H])=C3C4([H])C([H])([H])C([H])([H])C5([H])C([H])([H])C4(C([H])([H])[H])C([H])([H])C4([H])C([H])(C([H])(O[H])C6(C([H])([H])[H])C([H])(C([H])([H])[H])C([H])([H])C([H])([H])C46C([H])([H])[H])C2(C([H])([H])[H])C1(C([H])([H])[H])C35[H]

$$$$
2:0:2
     RDKit          3D

 75 81  0  0  1  0  0  0  0  0999 V2000
    5.7538   -7.8064    4.1817 C   0  0  0  0  0  0  0  0  0  0  0  0
    4.6413   -6.9411    4.7465 C   0  0  0  0  0  0  0  0  0  0  0  0
    3.3157   -7.0600    4.5134 C   0  0  0  0  0  0  0  0  0  0  0  0
    2.6339   -7.8512    3.4182 C   0  0  1  0  0  0  0  0  0  0  0  0
    1.4437   -8.5847    4.0846 C   0  0  0  0  0  0  0  0  0  0  0  0
    0.3984   -7.5546    4.6035 C   0  0  0  0  0  0  0  0  0  0  0  0
    0.9783   -6.1124    4.5473 C   0  0  2  0  0  0  0  0  0  0  0  0
    1.2033   -5.7383    3.0913 C   0  0  0  0  0  0  0  0  0  0  0  0
    2.0979   -6.7954    2.3766 C   0  0  2  0  0  0  0  0  0  0  0  0
    1.2202   -7.5423    1.3250 C   0  0  0  0  0  0  0  0  0  0  0  0
    3.1862   -6.0324    1.5615 C   0  0  0  0  0  0  0  0  0  0  0  0
    4.4865   -5.3273    2.1235 C   0  0  2  0  0  0  0  0  0  0  0  0
    4.4440   -4.2414    3.2742 C   0  0  1  0  0  0  0  0  0  0  0  0
    3.8047   -3.0536    2.5118 C   0  0  1  0  0  0  0  0  0  0  0  0
    3.6555   -1.8241    3.1958 O   0  0  0  0  0  0  0  0  0  0  0  0
    4.6914   -2.9669    1.2321 C   0  0  2  0  0  0  0  0  0  0  0  0
    5.8692   -1.9707    1.4381 C   0  0  0  0  0  0  0  0  0  0  0  0
    3.8769   -2.6042   -0.0364 C   0  0  1  0  0  0  0  0  0  0  0  0
    3.6871   -1.1122   -0.3455 C   0  0  0  0  0  0  0  0  0  0  0  0
    4.5646   -3.3724   -1.1544 C   0  0  0  0  0  0  0  0  0  0  0  0
    4.8300   -4.7327   -0.5217 C   0  0  0  0  0  0  0  0  0  0  0  0
    5.1781   -4.4575    0.9793 C   0  0  2  0  0  0  0  0  0  0  0  0
    6.7210   -4.6762    1.0755 C   0  0  0  0  0  0  0  0  0  0  0  0
    4.3854   -4.4178    4.8801 C   0  0  2  0  0  0  0  0  0  0  0  0
    5.0530   -3.0885    5.3951 C   0  0  0  0  0  0  0  0  0  0  0  0
    5.0603   -5.6874    5.5155 C   0  0  1  0  0  0  0  0  0  0  0  0
    4.1598   -5.4602    6.7426 C   0  0  1  0  0  0  0  0  0  0  0  0
    4.5980   -4.6655    7.8273 O   0  0  0  0  0  0  0  0  0  0  0  0
    3.1134   -4.8997    5.7286 C   0  0  1  0  0  0  0  0  0  0  0  0
    2.1391   -3.8415    6.2565 C   0  0  0  0  0  0  0  0  0  0  0  0
    2.3409   -6.1647    5.2683 C   0  0  2  0  0  0  0  0  0  0  0  0
    6.5516   -7.1907    3.7703 H   0  0  0  0  0  0  0  0  0  0  0  0
    5.4080   -8.4812    3.3999 H   0  0  0  0  0  0  0  0  0  0  0  0
    6.1802   -8.4099    4.9814 H   0  0  0  0  0  0  0  0  0  0  0  0
    3.3036   -8.5662    2.9462 H   0  0  0  0  0  0  0  0  0  0  0  0
    0.9748   -9.3040    3.4119 H   0  0  0  0  0  0  0  0  0  0  0  0
    1.8183   -9.1778    4.9212 H   0  0  0  0  0  0  0  0  0  0  0  0
   -0.5221   -7.6211    4.0215 H   0  0  0  0  0  0  0  0  0  0  0  0
    0.1209   -7.8124    5.6285 H   0  0  0  0  0  0  0  0  0  0  0  0
    0.2946   -5.4145    5.0246 H   0  0  0  0  0  0  0  0  0  0  0  0
    0.2485   -5.6204    2.5819 H   0  0  0  0  0  0  0  0  0  0  0  0
    1.6612   -4.7567    3.0845 H   0  0  0  0  0  0  0  0  0  0  0  0
    0.9255   -6.9007    0.4926 H   0  0  0  0  0  0  0  0  0  0  0  0
    0.2929   -7.9335    1.7465 H   0  0  0  0  0  0  0  0  0  0  0  0
    1.7522   -8.3965    0.9021 H   0  0  0  0  0  0  0  0  0  0  0  0
    3.5540   -6.7731    0.8491 H   0  0  0  0  0  0  0  0  0  0  0  0
    2.6292   -5.3040    0.9678 H   0  0  0  0  0  0  0  0  0  0  0  0
    5.1734   -6.1258    2.3695 H   0  0  0  0  0  0  0  0  0  0  0  0
    5.5000   -4.0016    3.2535 H   0  0  0  0  0  0  0  0  0  0  0  0
    2.7952   -3.3146    2.2214 H   0  0  0  0  0  0  0  0  0  0  0  0
    4.5073   -1.5291    3.4679 H   0  0  0  0  0  0  0  0  0  0  0  0
    6.5110   -1.9257    0.5617 H   0  0  0  0  0  0  0  0  0  0  0  0
    6.4926   -2.2323    2.2902 H   0  0  0  0  0  0  0  0  0  0  0  0
    5.5176   -0.9553    1.6202 H   0  0  0  0  0  0  0  0  0  0  0  0
    2.8775   -3.0322    0.0515 H   0  0  0  0  0  0  0  0  0  0  0  0
    4.6241   -0.6018   -0.5719 H   0  0  0  0  0  0  0  0  0  0  0  0
    3.2131   -0.6000    0.4920 H   0  0  0  0  0  0  0  0  0  0  0  0
    3.0310   -0.9999   -1.2090 H   0  0  0  0  0  0  0  0  0  0  0  0
    3.9477   -3.4503   -2.0487 H   0  0  0  0  0  0  0  0  0  0  0  0
    5.5019   -2.8921   -1.4406 H   0  0  0  0  0  0  0  0  0  0  0  0
    3.9505   -5.3435   -0.6996 H   0  0  0  0  0  0  0  0  0  0  0  0
    5.6333   -5.2400   -1.0471 H   0  0  0  0  0  0  0  0  0  0  0  0
    7.2608   -4.0852    0.3368 H   0  0  0  0  0  0  0  0  0  0  0  0
    6.9702   -5.7213    0.8822 H   0  0  0  0  0  0  0  0  0  0  0  0
    7.1514   -4.4441    2.0482 H   0  0  0  0  0  0  0  0  0  0  0  0
    5.6628   -3.2117    6.2857 H   0  0  0  0  0  0  0  0  0  0  0  0
    4.3147   -2.3160    5.6085 H   0  0  0  0  0  0  0  0  0  0  0  0
    5.7645   -2.6409    4.7041 H   0  0  0  0  0  0  0  0  0  0  0  0
    6.1276   -5.6106    5.7098 H   0  0  0  0  0  0  0  0  0  0  0  0
    3.8885   -6.4190    7.1891 H   0  0  0  0  0  0  0  0  0  0  0  0
    4.8719   -3.8327    7.4783 H   0  0  0  0  0  0  0  0  0  0  0  0
    1.3896   -4.2729    6.9200 H   0  0  0  0  0  0  0  0  0  0  0  0
    1.6277   -3.3271    5.4417 H   0  0  0  0  0  0  0  0  0  0  0  0
    2.6541   -3.0805    6.8445 H   0  0  0  0  0  0  0  0  0  0  0  0
    2.0920   -6.7245    6.1721 H   0  0  0  0  0  0  0  0  0  0  0  0
  1  2  1  0
  1 32  1  0
  1 33  1  0
  1 34  1  0
  2 26  1  0
  2  3  2  0
  3 31  1  0
  3  4  1  0
  4  9  1  0
  4  5  1  0
  4 35  1  6
  5  6  1  0
  5 36  1  0
  5 37  1  0
  6  7  1  0
  6 38  1  0
  6 39  1  0
  7 31  1  0
  7  8  1  0
  7 40  1  1
  8  9  1  0
  8 41  1  0
  8 42  1  0
  9 10  1  6
  9 11  1  0
 10 43  1  0
 10 44  1  0
 10 45  1  0
 11 12  1  0
 11 46  1  0
 11 47  1  0
 12 22  1  0
 12 13  1  0
 12 48  1  1
 13 14  1  0
 13 24  1  0
 13 49  1  1
 14 15  1  0
 14 16  1  0
 14 50  1  6
 15 51  1  0
 16 22  1  0
 16 17  1  1
 16 18  1  0
 17 52  1  0
 17 53  1  0
 17 54  1  0
 18 19  1  0
 18 20  1  0
 18 55  1  1
 19 56  1  0
 19 57  1  0
 19 58  1  0
 20 21  1  0
 20 59  1  0
 20 60  1  0
 21 22  1  0
 21 61  1  0
 21 62  1  0
 22 23  1  6
 23 63  1  0
 23 64  1  0
 23 65  1  0
 24 29  1  0
 24 25  1  1
 24 26  1  0
 25 66  1  0
 25 67  1  0
 25 68  1  0
 26 27  1  0
 26 69  1  1
 27 28  1  0
 27 29  1  0
 27 70  1  1
 28 71  1  0
 29 30  1  1
 29 31  1  0
 30 72  1  0
 30 73  1  0
 30 74  1  0
 31 75  1  1
M  END
>  <i_m_ct_stereo_status>  (9) 
1

>  <s_m_source_file>  (9) 
/var/tmp/pbs.5076255.sched01/tmp98udq4tg/0t315e5yz.sdf

>  <i_m_source_file_index>  (9) 
3

>  <i_lp_mmshare_version>  (9) 
48012

>  <i_f3d_flags>  (9) 
0

>  <s_epik_input>  (9) 
W0NIM11bQ0BdMTJbQ0BIXTNDNFtDQEhdKFtDQEBIXShbQ0gyXTEpW0NIMl1bQ0gyXTMpW0NAXTUoW0NIM10pW0NAQF0oW0NIM10pKFtDQEhdKEM9NFtDSDNdKVtDQEhdNVtPSF0pW0NASF02W0NAQEhdKFtDSDJdMilbQ0BdNyhbQ0gzXSlbQ0BdKFtDSDNdKShbQ0BASF02W09IXSlbQ0BASF0oW0NIM10pW0NIMl1bQ0gyXTc=

>  <s_epik_cmdline>  (9) 
J2VwaWtfcHl0aG9uJywgJy1waHQnLCAnMi4wJywgJy1waCcsICc3LjAnLCAnLXRuJywgJzgnLCAnLW1hJywgJzIwMCcsICctaW1hZScsICc8aW5maWxlLm1hZT4nLCAnLW9tYWUnLCAnPG91dGZpbGUubWFlPic=

>  <r_lp_tautomer_probability>  (9) 
1

>  <r_epik_Ionization_Penalty>  (9) 
3.43078e-06

>  <r_epik_Ionization_Penalty_Charging>  (9) 
0

>  <r_epik_Ionization_Penalty_Neutral>  (9) 
3.43078e-06

>  <r_epik_State_Penalty>  (9) 
-0

>  <r_epik_Charging_Adjusted_Penalty>  (9) 
0

>  <i_epik_Tot_Q>  (9) 
0

>  <i_epik_Tot_abs_Q>  (9) 
0

>  <s_lp_Force_Field>  (9) 
OPLS3e

>  <r_lp_Energy>  (9) 
146.238

>  <b_lp_Chiralities_Consistent>  (9) 
1

>  <s_lp_Variant>  (9) 
2:0-1

>  <s_i_glide_gridfile>  (9) 
pfpi4k_grid

>  <i_i_glide_lignum>  (9) 
3

>  <i_i_glide_rotatable_bonds>  (9) 
2

>  <r_i_docking_score>  (9) 
-1.68868

>  <r_i_glide_ligand_efficiency>  (9) 
-0.0544736

>  <r_i_glide_ligand_efficiency_sa>  (9) 
-0.171122

>  <r_i_glide_ligand_efficiency_ln>  (9) 
-0.380849

>  <r_i_glide_gscore>  (9) 
-1.68868

>  <r_i_glide_lipo>  (9) 
-0.397102

>  <r_i_glide_hbond>  (9) 
0

>  <r_i_glide_metal>  (9) 
-0

>  <r_i_glide_rewards>  (9) 
-0.513692

>  <r_i_glide_evdw>  (9) 
-16.7448

>  <r_i_glide_ecoul>  (9) 
0.395698

>  <r_i_glide_erotb>  (9) 
0

>  <r_i_glide_esite>  (9) 
0

>  <r_i_glide_emodel>  (9) 
-18.2027

>  <r_i_glide_energy>  (9) 
-16.3491

>  <r_i_glide_einternal>  (9) 
0.0055806

>  <r_i_glide_intrahb_reward>  (9) 
-0

>  <i_i_glide_confnum>  (9) 
1

>  <i_i_glide_posenum>  (9) 
9

>  <r_i_glide_eff_state_penalty>  (9) 
0

>  <ligand_id>  (9) 
2

>  <original_smiles>  (9) 
CC1=C2C3CCC4CC3(C)CC3C(C(O)C5(C)C(C)CCC35C)C3(C)C1C(O)C3(C)C24

>  <smiles>  (9) 
[H]OC1([H])C2([H])C(C([H])([H])[H])=C3C4([H])C([H])([H])C([H])([H])C5([H])C([H])([H])C4(C([H])([H])[H])C([H])([H])C4([H])C([H])(C([H])(O[H])C6(C([H])([H])[H])C([H])(C([H])([H])[H])C([H])([H])C([H])([H])C46C([H])([H])[H])C2(C([H])([H])[H])C1(C([H])([H])[H])C35[H]

$$$$
4:0:0
     RDKit          3D

 19 21  0  0  1  0  0  0  0  0999 V2000
    0.3718    1.1373    2.8772 C   0  0  0  0  0  0  0  0  0  0  0  0
    0.9877   -0.0770    3.0974 C   0  0  0  0  0  0  0  0  0  0  0  0
    0.4174   -0.9873    4.0300 C   0  0  0  0  0  0  0  0  0  0  0  0
    0.7189   -2.2033    4.4720 N   0  0  0  0  0  0  0  0  0  0  0  0
   -0.2674   -2.5184    5.3906 N   0  0  0  0  0  0  0  0  0  0  0  0
   -1.1557   -1.5765    5.5272 N   0  0  0  0  0  0  0  0  0  0  0  0
   -0.7585   -0.5922    4.6815 N   0  0  0  0  0  0  0  0  0  0  0  0
   -1.3763    0.5973    4.4758 C   0  0  0  0  0  0  0  0  0  0  0  0
   -0.8179    1.4760    3.5720 C   0  0  0  0  0  0  0  0  0  0  0  0
   -1.4354    2.7175    3.3349 N   0  0  0  0  0  0  0  0  0  0  0  0
   -2.7169    3.0027    3.0681 C   0  0  0  0  0  0  0  0  0  0  0  0
   -2.9852    4.2912    2.8717 N   0  0  0  0  0  0  0  0  0  0  0  0
   -1.7755    4.9290    3.0386 N   0  0  0  0  0  0  0  0  0  0  0  0
   -0.9064    3.9485    3.2929 C   0  0  0  0  0  0  0  0  0  0  0  0
    0.7942    1.8326    2.1568 H   0  0  0  0  0  0  0  0  0  0  0  0
    1.8905   -0.3509    2.5607 H   0  0  0  0  0  0  0  0  0  0  0  0
   -2.2813    0.7908    5.0381 H   0  0  0  0  0  0  0  0  0  0  0  0
   -3.4824    2.2539    3.0055 H   0  0  0  0  0  0  0  0  0  0  0  0
    0.1425    4.1374    3.4463 H   0  0  0  0  0  0  0  0  0  0  0  0
  1  9  1  0
  1  2  2  0
  1 15  1  0
  2  3  1  0
  2 16  1  0
  3  7  1  0
  3  4  2  0
  4  5  1  0
  5  6  2  0
  6  7  1  0
  7  8  1  0
  8  9  2  0
  8 17  1  0
  9 10  1  0
 10 14  1  0
 10 11  1  0
 11 12  2  0
 11 18  1  0
 12 13  1  0
 13 14  2  0
 14 19  1  0
M  END
>  <i_m_ct_stereo_status>  (10) 
1

>  <s_m_source_file>  (10) 
/var/tmp/pbs.5076255.sched01/tmp98udq4tg/0t315e5yz.sdf

>  <i_m_source_file_index>  (10) 
5

>  <i_lp_mmshare_version>  (10) 
48012

>  <i_f3d_flags>  (10) 
0

>  <s_epik_input>  (10) 
W2NIXTFubltjSF1uMS1jKFtjSF1bY0hdMilbY0hdbihjMjMpbm5uMw==

>  <s_epik_cmdline>  (10) 
J2VwaWtfcHl0aG9uJywgJy1waHQnLCAnMi4wJywgJy1waCcsICc3LjAnLCAnLXRuJywgJzgnLCAnLW1hJywgJzIwMCcsICctaW1hZScsICc8aW5maWxlLm1hZT4nLCAnLW9tYWUnLCAnPG91dGZpbGUubWFlPic=

>  <r_lp_tautomer_probability>  (10) 
1

>  <r_epik_Ionization_Penalty>  (10) 
3.04686e-07

>  <r_epik_Ionization_Penalty_Charging>  (10) 
0

>  <r_epik_Ionization_Penalty_Neutral>  (10) 
3.04686e-07

>  <r_epik_State_Penalty>  (10) 
-0

>  <r_epik_Charging_Adjusted_Penalty>  (10) 
0

>  <i_epik_Tot_Q>  (10) 
0

>  <i_epik_Tot_abs_Q>  (10) 
0

>  <s_lp_Force_Field>  (10) 
OPLS3e

>  <r_lp_Energy>  (10) 
15.4117

>  <b_lp_Chiralities_Consistent>  (10) 
1

>  <s_lp_Variant>  (10) 
4:0-1

>  <s_i_glide_gridfile>  (10) 
pfpi4k_grid

>  <i_i_glide_lignum>  (10) 
5

>  <i_i_glide_rotatable_bonds>  (10) 
1

>  <r_i_docking_score>  (10) 
-3.92972

>  <r_i_glide_ligand_efficiency>  (10) 
-0.280695

>  <r_i_glide_ligand_efficiency_sa>  (10) 
-0.676514

>  <r_i_glide_ligand_efficiency_ln>  (10) 
-1.07987

>  <r_i_glide_gscore>  (10) 
-3.92972

>  <r_i_glide_lipo>  (10) 
0

>  <r_i_glide_hbond>  (10) 
0

>  <r_i_glide_metal>  (10) 
-0

>  <r_i_glide_rewards>  (10) 
-2.13299

>  <r_i_glide_evdw>  (10) 
-13.7103

>  <r_i_glide_ecoul>  (10) 
-7.41475

>  <r_i_glide_erotb>  (10) 
0.455851

>  <r_i_glide_esite>  (10) 
-0.454857

>  <r_i_glide_emodel>  (10) 
-26.8552

>  <r_i_glide_energy>  (10) 
-21.1251

>  <r_i_glide_einternal>  (10) 
1.09873

>  <r_i_glide_intrahb_reward>  (10) 
-0

>  <i_i_glide_confnum>  (10) 
5

>  <i_i_glide_posenum>  (10) 
3

>  <r_i_glide_eff_state_penalty>  (10) 
0

>  <ligand_id>  (10) 
4

>  <original_smiles>  (10) 
c1cc2nnnn2cc1-n1cnnc1

>  <smiles>  (10) 
[H]c1c(-n2c([H])nnc2[H])c([H])n2nnnc2c1[H]

$$$$
4:0:1
     RDKit          3D

 19 21  0  0  1  0  0  0  0  0999 V2000
    0.1980   -9.0792    5.6076 C   0  0  0  0  0  0  0  0  0  0  0  0
    0.2202   -9.4570    6.9313 C   0  0  0  0  0  0  0  0  0  0  0  0
    0.2859   -8.4678    7.9429 C   0  0  0  0  0  0  0  0  0  0  0  0
    0.2953   -8.4675    9.2694 N   0  0  0  0  0  0  0  0  0  0  0  0
    0.3774   -7.1376    9.6344 N   0  0  0  0  0  0  0  0  0  0  0  0
    0.3761   -6.3278    8.6195 N   0  0  0  0  0  0  0  0  0  0  0  0
    0.3348   -7.1300    7.5238 N   0  0  0  0  0  0  0  0  0  0  0  0
    0.3167   -6.7363    6.2214 C   0  0  0  0  0  0  0  0  0  0  0  0
    0.2426   -7.7076    5.2437 C   0  0  0  0  0  0  0  0  0  0  0  0
    0.2209   -7.3441    3.8833 N   0  0  0  0  0  0  0  0  0  0  0  0
   -0.4042   -7.9249    2.8446 C   0  0  0  0  0  0  0  0  0  0  0  0
   -0.2305   -7.3105    1.6736 N   0  0  0  0  0  0  0  0  0  0  0  0
    0.6111   -6.2558    1.9443 N   0  0  0  0  0  0  0  0  0  0  0  0
    0.8368   -6.3288    3.2563 C   0  0  0  0  0  0  0  0  0  0  0  0
    0.1430   -9.8521    4.8470 H   0  0  0  0  0  0  0  0  0  0  0  0
    0.1970  -10.5133    7.2011 H   0  0  0  0  0  0  0  0  0  0  0  0
    0.3474   -5.6669    6.0357 H   0  0  0  0  0  0  0  0  0  0  0  0
   -1.0164   -8.8086    2.9476 H   0  0  0  0  0  0  0  0  0  0  0  0
    1.4648   -5.6180    3.7710 H   0  0  0  0  0  0  0  0  0  0  0  0
  1  9  1  0
  1  2  2  0
  1 15  1  0
  2  3  1  0
  2 16  1  0
  3  7  1  0
  3  4  2  0
  4  5  1  0
  5  6  2  0
  6  7  1  0
  7  8  1  0
  8  9  2  0
  8 17  1  0
  9 10  1  0
 10 14  1  0
 10 11  1  0
 11 12  2  0
 11 18  1  0
 12 13  1  0
 13 14  2  0
 14 19  1  0
M  END
>  <i_m_ct_stereo_status>  (11) 
1

>  <s_m_source_file>  (11) 
/var/tmp/pbs.5076255.sched01/tmp98udq4tg/0t315e5yz.sdf

>  <i_m_source_file_index>  (11) 
5

>  <i_lp_mmshare_version>  (11) 
48012

>  <i_f3d_flags>  (11) 
0

>  <s_epik_input>  (11) 
W2NIXTFubltjSF1uMS1jKFtjSF1bY0hdMilbY0hdbihjMjMpbm5uMw==

>  <s_epik_cmdline>  (11) 
J2VwaWtfcHl0aG9uJywgJy1waHQnLCAnMi4wJywgJy1waCcsICc3LjAnLCAnLXRuJywgJzgnLCAnLW1hJywgJzIwMCcsICctaW1hZScsICc8aW5maWxlLm1hZT4nLCAnLW9tYWUnLCAnPG91dGZpbGUubWFlPic=

>  <r_lp_tautomer_probability>  (11) 
1

>  <r_epik_Ionization_Penalty>  (11) 
3.04686e-07

>  <r_epik_Ionization_Penalty_Charging>  (11) 
0

>  <r_epik_Ionization_Penalty_Neutral>  (11) 
3.04686e-07

>  <r_epik_State_Penalty>  (11) 
-0

>  <r_epik_Charging_Adjusted_Penalty>  (11) 
0

>  <i_epik_Tot_Q>  (11) 
0

>  <i_epik_Tot_abs_Q>  (11) 
0

>  <s_lp_Force_Field>  (11) 
OPLS3e

>  <r_lp_Energy>  (11) 
15.4117

>  <b_lp_Chiralities_Consistent>  (11) 
1

>  <s_lp_Variant>  (11) 
4:0-1

>  <s_i_glide_gridfile>  (11) 
pfpi4k_grid

>  <i_i_glide_lignum>  (11) 
5

>  <i_i_glide_rotatable_bonds>  (11) 
1

>  <r_i_docking_score>  (11) 
-3.83182

>  <r_i_glide_ligand_efficiency>  (11) 
-0.273701

>  <r_i_glide_ligand_efficiency_sa>  (11) 
-0.659659

>  <r_i_glide_ligand_efficiency_ln>  (11) 
-1.05297

>  <r_i_glide_gscore>  (11) 
-3.83182

>  <r_i_glide_lipo>  (11) 
0

>  <r_i_glide_hbond>  (11) 
0

>  <r_i_glide_metal>  (11) 
-0

>  <r_i_glide_rewards>  (11) 
-2.13299

>  <r_i_glide_evdw>  (11) 
-16.0129

>  <r_i_glide_ecoul>  (11) 
-5.79536

>  <r_i_glide_erotb>  (11) 
0.455851

>  <r_i_glide_esite>  (11) 
-0.48473

>  <r_i_glide_emodel>  (11) 
-27.8031

>  <r_i_glide_energy>  (11) 
-21.8082

>  <r_i_glide_einternal>  (11) 
0.373522

>  <r_i_glide_intrahb_reward>  (11) 
-0

>  <i_i_glide_confnum>  (11) 
6

>  <i_i_glide_posenum>  (11) 
13

>  <r_i_glide_eff_state_penalty>  (11) 
0

>  <ligand_id>  (11) 
4

>  <original_smiles>  (11) 
c1cc2nnnn2cc1-n1cnnc1

>  <smiles>  (11) 
[H]c1c(-n2c([H])nnc2[H])c([H])n2nnnc2c1[H]

$$$$
4:0:2
     RDKit          3D

 19 21  0  0  1  0  0  0  0  0999 V2000
    3.5491   -1.4285    0.2946 C   0  0  0  0  0  0  0  0  0  0  0  0
    3.3182   -1.5862    1.6445 C   0  0  0  0  0  0  0  0  0  0  0  0
    2.9421   -2.8630    2.1360 C   0  0  0  0  0  0  0  0  0  0  0  0
    2.6392   -3.3630    3.3275 N   0  0  0  0  0  0  0  0  0  0  0  0
    2.3539   -4.6972    3.1045 N   0  0  0  0  0  0  0  0  0  0  0  0
    2.4518   -5.0387    1.8574 N   0  0  0  0  0  0  0  0  0  0  0  0
    2.8339   -3.9092    1.2086 N   0  0  0  0  0  0  0  0  0  0  0  0
    3.0616   -3.7704   -0.1248 C   0  0  0  0  0  0  0  0  0  0  0  0
    3.4186   -2.5253   -0.5998 C   0  0  0  0  0  0  0  0  0  0  0  0
    3.6487   -2.3381   -1.9780 N   0  0  0  0  0  0  0  0  0  0  0  0
    3.4926   -1.2433   -2.7414 C   0  0  0  0  0  0  0  0  0  0  0  0
    3.8150   -1.4001   -4.0266 N   0  0  0  0  0  0  0  0  0  0  0  0
    4.2132   -2.7157   -4.1263 N   0  0  0  0  0  0  0  0  0  0  0  0
    4.0891   -3.2102   -2.8968 C   0  0  0  0  0  0  0  0  0  0  0  0
    3.8237   -0.4478   -0.0772 H   0  0  0  0  0  0  0  0  0  0  0  0
    3.4012   -0.7485    2.3281 H   0  0  0  0  0  0  0  0  0  0  0  0
    2.9305   -4.6560   -0.7398 H   0  0  0  0  0  0  0  0  0  0  0  0
    3.1346   -0.3011   -2.3591 H   0  0  0  0  0  0  0  0  0  0  0  0
    4.3431   -4.2332   -2.6648 H   0  0  0  0  0  0  0  0  0  0  0  0
  1  9  1  0
  1  2  2  0
  1 15  1  0
  2  3  1  0
  2 16  1  0
  3  7  1  0
  3  4  2  0
  4  5  1  0
  5  6  2  0
  6  7  1  0
  7  8  1  0
  8  9  2  0
  8 17  1  0
  9 10  1  0
 10 14  1  0
 10 11  1  0
 11 12  2  0
 11 18  1  0
 12 13  1  0
 13 14  2  0
 14 19  1  0
M  END
>  <i_m_ct_stereo_status>  (12) 
1

>  <s_m_source_file>  (12) 
/var/tmp/pbs.5076255.sched01/tmp98udq4tg/0t315e5yz.sdf

>  <i_m_source_file_index>  (12) 
5

>  <i_lp_mmshare_version>  (12) 
48012

>  <i_f3d_flags>  (12) 
0

>  <s_epik_input>  (12) 
W2NIXTFubltjSF1uMS1jKFtjSF1bY0hdMilbY0hdbihjMjMpbm5uMw==

>  <s_epik_cmdline>  (12) 
J2VwaWtfcHl0aG9uJywgJy1waHQnLCAnMi4wJywgJy1waCcsICc3LjAnLCAnLXRuJywgJzgnLCAnLW1hJywgJzIwMCcsICctaW1hZScsICc8aW5maWxlLm1hZT4nLCAnLW9tYWUnLCAnPG91dGZpbGUubWFlPic=

>  <r_lp_tautomer_probability>  (12) 
1

>  <r_epik_Ionization_Penalty>  (12) 
3.04686e-07

>  <r_epik_Ionization_Penalty_Charging>  (12) 
0

>  <r_epik_Ionization_Penalty_Neutral>  (12) 
3.04686e-07

>  <r_epik_State_Penalty>  (12) 
-0

>  <r_epik_Charging_Adjusted_Penalty>  (12) 
0

>  <i_epik_Tot_Q>  (12) 
0

>  <i_epik_Tot_abs_Q>  (12) 
0

>  <s_lp_Force_Field>  (12) 
OPLS3e

>  <r_lp_Energy>  (12) 
15.4117

>  <b_lp_Chiralities_Consistent>  (12) 
1

>  <s_lp_Variant>  (12) 
4:0-1

>  <s_i_glide_gridfile>  (12) 
pfpi4k_grid

>  <i_i_glide_lignum>  (12) 
5

>  <i_i_glide_rotatable_bonds>  (12) 
1

>  <r_i_docking_score>  (12) 
-3.76858

>  <r_i_glide_ligand_efficiency>  (12) 
-0.269185

>  <r_i_glide_ligand_efficiency_sa>  (12) 
-0.648773

>  <r_i_glide_ligand_efficiency_ln>  (12) 
-1.03559

>  <r_i_glide_gscore>  (12) 
-3.76858

>  <r_i_glide_lipo>  (12) 
0

>  <r_i_glide_hbond>  (12) 
0

>  <r_i_glide_metal>  (12) 
-0

>  <r_i_glide_rewards>  (12) 
-2.13299

>  <r_i_glide_evdw>  (12) 
-18.0496

>  <r_i_glide_ecoul>  (12) 
-7.07712

>  <r_i_glide_erotb>  (12) 
0.455851

>  <r_i_glide_esite>  (12) 
-0.127397

>  <r_i_glide_emodel>  (12) 
-31.1172

>  <r_i_glide_energy>  (12) 
-25.1267

>  <r_i_glide_einternal>  (12) 
0.209637

>  <r_i_glide_intrahb_reward>  (12) 
-0

>  <i_i_glide_confnum>  (12) 
5

>  <i_i_glide_posenum>  (12) 
2

>  <r_i_glide_eff_state_penalty>  (12) 
0

>  <ligand_id>  (12) 
4

>  <original_smiles>  (12) 
c1cc2nnnn2cc1-n1cnnc1

>  <smiles>  (12) 
[H]c1c(-n2c([H])nnc2[H])c([H])n2nnnc2c1[H]

$$$$
5:0:0
     RDKit          3D

 86 91  0  0  1  0  0  0  0  0999 V2000
    2.9337   -1.2774    7.1548 C   0  0  0  0  0  0  0  0  0  0  0  0
    2.7030    0.1238    7.3357 O   0  0  0  0  0  0  0  0  0  0  0  0
    3.1357    1.0302    6.2949 C   0  0  2  0  0  0  0  0  0  0  0  0
    3.7697    2.3586    7.0479 C   0  0  0  0  0  0  0  0  0  0  0  0
    2.8077    3.4945    7.5640 C   0  0  1  0  0  0  0  0  0  0  0  0
    2.3102    2.5482    8.5201 O   0  0  0  0  0  0  0  0  0  0  0  0
    3.0386    4.5608    8.6199 C   0  0  0  0  0  0  0  0  0  0  0  0
    4.1734    4.9327    8.9671 O   0  0  0  0  0  0  0  0  0  0  0  0
    1.6901    5.1118    9.2606 C   0  0  0  0  0  0  0  0  0  0  0  0
    1.5644    4.4729   10.6795 C   0  0  0  0  0  0  0  0  0  0  0  0
    1.9272    6.6334    9.4906 C   0  0  0  0  0  0  0  0  0  0  0  0
    0.3200    4.8338    8.3609 C   0  0  1  0  0  0  0  0  0  0  0  0
   -0.9492    4.5058    9.2131 C   0  0  0  0  0  0  0  0  0  0  0  0
   -0.1134    6.0720    7.8102 O   0  0  0  0  0  0  0  0  0  0  0  0
    0.5014    3.9469    7.0159 C   0  0  2  0  0  0  0  0  0  0  0  0
    1.8737    4.3490    6.5280 C   0  0  2  0  0  0  0  0  0  0  0  0
    1.9985    4.5324    4.8930 C   0  0  2  0  0  0  0  0  0  0  0  0
    2.6700    5.8328    4.4916 C   0  0  0  0  0  0  0  0  0  0  0  0
    1.7612    6.7263    4.0994 C   0  0  0  0  0  0  0  0  0  0  0  0
    0.3552    6.1555    4.0950 C   0  0  0  0  0  0  0  0  0  0  0  0
    0.6911    4.6431    4.0166 C   0  0  2  0  0  0  0  0  0  0  0  0
   -0.0968    3.3005    4.3115 C   0  0  1  0  0  0  0  0  0  0  0  0
   -1.3506    4.1229    4.9521 C   0  0  0  0  0  0  0  0  0  0  0  0
   -1.0146    2.3085    3.5713 C   0  0  1  0  0  0  0  0  0  0  0  0
   -0.5745    1.7622    2.3735 O   0  0  0  0  0  0  0  0  0  0  0  0
   -1.4927    1.3174    4.7341 C   0  0  1  0  0  0  0  0  0  0  0  0
   -1.4805   -0.1854    4.4222 C   0  0  0  0  0  0  0  0  0  0  0  0
   -0.9393    1.6303    6.2175 C   0  0  0  0  0  0  0  0  0  0  0  0
    0.4274    2.4591    6.3604 C   0  0  1  0  0  0  0  0  0  0  0  0
    1.2035    2.4256    4.9495 C   0  0  1  0  0  0  0  0  0  0  0  0
    1.9979    0.9707    5.0883 C   0  0  1  0  0  0  0  0  0  0  0  0
    2.5376    0.0243    3.8603 C   0  0  0  0  0  0  0  0  0  0  0  0
    1.5094   -0.1755    2.7348 C   0  0  0  0  0  0  0  0  0  0  0  0
    3.9241    0.2554    3.2094 C   0  0  0  0  0  0  0  0  0  0  0  0
    2.7034   -1.3125    4.2320 O   0  0  0  0  0  0  0  0  0  0  0  0
    2.4327    3.2648    4.2756 C   0  0  1  0  0  0  0  0  0  0  0  0
    2.5619    3.2631    2.6886 C   0  0  0  0  0  0  0  0  0  0  0  0
    3.8138    3.1096    4.4774 O   0  0  0  0  0  0  0  0  0  0  0  0
    2.3913   -1.8728    7.8960 H   0  0  0  0  0  0  0  0  0  0  0  0
    3.9995   -1.5417    7.1498 H   0  0  0  0  0  0  0  0  0  0  0  0
    2.4578   -1.6994    6.3153 H   0  0  0  0  0  0  0  0  0  0  0  0
    4.0468    0.5758    5.8953 H   0  0  0  0  0  0  0  0  0  0  0  0
    4.3757    1.9892    7.8847 H   0  0  0  0  0  0  0  0  0  0  0  0
    4.6033    2.8267    6.5405 H   0  0  0  0  0  0  0  0  0  0  0  0
    1.5845    2.9231    8.9959 H   0  0  0  0  0  0  0  0  0  0  0  0
    0.8566    5.0072   11.3127 H   0  0  0  0  0  0  0  0  0  0  0  0
    2.5127    4.4676   11.2226 H   0  0  0  0  0  0  0  0  0  0  0  0
    1.2276    3.4368   10.6561 H   0  0  0  0  0  0  0  0  0  0  0  0
    1.0841    7.1125    9.9856 H   0  0  0  0  0  0  0  0  0  0  0  0
    2.1021    7.1580    8.5492 H   0  0  0  0  0  0  0  0  0  0  0  0
    2.8039    6.8299   10.1124 H   0  0  0  0  0  0  0  0  0  0  0  0
   -0.8732    3.5485    9.7280 H   0  0  0  0  0  0  0  0  0  0  0  0
   -1.8488    4.4545    8.5966 H   0  0  0  0  0  0  0  0  0  0  0  0
   -1.1382    5.2633    9.9767 H   0  0  0  0  0  0  0  0  0  0  0  0
   -0.2415    6.6912    8.5169 H   0  0  0  0  0  0  0  0  0  0  0  0
    0.3291    3.2857    7.8388 H   0  0  0  0  0  0  0  0  0  0  0  0
    1.9788    5.4136    6.7410 H   0  0  0  0  0  0  0  0  0  0  0  0
    3.7429    5.9848    4.5479 H   0  0  0  0  0  0  0  0  0  0  0  0
    1.9661    7.7447    3.7935 H   0  0  0  0  0  0  0  0  0  0  0  0
   -0.1237    6.4892    5.0081 H   0  0  0  0  0  0  0  0  0  0  0  0
   -0.2195    6.5024    3.2360 H   0  0  0  0  0  0  0  0  0  0  0  0
    0.7817    4.6690    2.9352 H   0  0  0  0  0  0  0  0  0  0  0  0
   -2.1970    3.5754    5.3544 H   0  0  0  0  0  0  0  0  0  0  0  0
   -1.8319    4.6893    4.1539 H   0  0  0  0  0  0  0  0  0  0  0  0
   -1.1772    4.8696    5.7133 H   0  0  0  0  0  0  0  0  0  0  0  0
   -1.9007    2.8040    3.1560 H   0  0  0  0  0  0  0  0  0  0  0  0
   -0.2557    2.4678    1.8233 H   0  0  0  0  0  0  0  0  0  0  0  0
   -2.5709    1.4987    4.7799 H   0  0  0  0  0  0  0  0  0  0  0  0
   -0.5231   -0.6243    4.6471 H   0  0  0  0  0  0  0  0  0  0  0  0
   -1.7693   -0.3682    3.3836 H   0  0  0  0  0  0  0  0  0  0  0  0
   -2.1581   -0.7507    5.0611 H   0  0  0  0  0  0  0  0  0  0  0  0
   -1.7032    2.1080    6.8272 H   0  0  0  0  0  0  0  0  0  0  0  0
   -0.8389    0.6617    6.7141 H   0  0  0  0  0  0  0  0  0  0  0  0
    0.8795    1.7241    7.0153 H   0  0  0  0  0  0  0  0  0  0  0  0
    1.2303    0.3135    5.4790 H   0  0  0  0  0  0  0  0  0  0  0  0
    1.3901    0.7897    2.2445 H   0  0  0  0  0  0  0  0  0  0  0  0
    0.5695   -0.6086    3.0745 H   0  0  0  0  0  0  0  0  0  0  0  0
    1.8615   -0.8785    1.9598 H   0  0  0  0  0  0  0  0  0  0  0  0
    4.0123    1.1416    2.7029 H   0  0  0  0  0  0  0  0  0  0  0  0
    4.0628   -0.4618    2.3874 H   0  0  0  0  0  0  0  0  0  0  0  0
    4.7607    0.2394    3.9072 H   0  0  0  0  0  0  0  0  0  0  0  0
    3.0377   -1.7762    3.4777 H   0  0  0  0  0  0  0  0  0  0  0  0
    1.6448    2.9794    2.1742 H   0  0  0  0  0  0  0  0  0  0  0  0
    3.2737    2.6696    2.1893 H   0  0  0  0  0  0  0  0  0  0  0  0
    2.9466    4.2306    2.3374 H   0  0  0  0  0  0  0  0  0  0  0  0
    4.2066    2.9445    3.6293 H   0  0  0  0  0  0  0  0  0  0  0  0
  1  2  1  0
  1 39  1  0
  1 40  1  0
  1 41  1  0
  2  3  1  0
  3 31  1  0
  3  4  1  0
  3 42  1  6
  4  5  1  0
  4 43  1  0
  4 44  1  0
  5 16  1  0
  5  6  1  1
  5  7  1  0
  6 45  1  0
  7  8  2  0
  7  9  1  0
  9 10  1  0
  9 11  1  0
  9 12  1  0
 10 46  1  0
 10 47  1  0
 10 48  1  0
 11 49  1  0
 11 50  1  0
 11 51  1  0
 12 13  1  0
 12 14  1  6
 12 15  1  0
 13 52  1  0
 13 53  1  0
 13 54  1  0
 14 55  1  0
 15 29  1  0
 15 16  1  0
 15 56  1  6
 16 17  1  0
 16 57  1  1
 17 21  1  0
 17 36  1  0
 17 18  1  1
 18 19  2  0
 18 58  1  0
 19 20  1  0
 19 59  1  0
 20 21  1  0
 20 60  1  0
 20 61  1  0
 21 22  1  0
 21 62  1  6
 22 30  1  0
 22 23  1  1
 22 24  1  0
 23 63  1  0
 23 64  1  0
 23 65  1  0
 24 25  1  0
 24 26  1  0
 24 66  1  6
 25 67  1  0
 26 27  1  0
 26 28  1  0
 26 68  1  1
 27 69  1  0
 27 70  1  0
 27 71  1  0
 28 29  1  0
 28 72  1  0
 28 73  1  0
 29 30  1  0
 29 74  1  1
 30 31  1  0
 30 36  1  1
 31 32  1  0
 31 75  1  1
 32 33  1  0
 32 34  1  0
 32 35  1  0
 33 76  1  0
 33 77  1  0
 33 78  1  0
 34 79  1  0
 34 80  1  0
 34 81  1  0
 35 82  1  0
 36 37  1  0
 36 38  1  1
 37 83  1  0
 37 84  1  0
 37 85  1  0
 38 86  1  0
M  END
>  <i_m_ct_stereo_status>  (13) 
1

>  <s_m_source_file>  (13) 
/var/tmp/pbs.5076255.sched01/tmp98udq4tg/0t315e5yz.sdf

>  <i_m_source_file_index>  (13) 
6

>  <i_lp_mmshare_version>  (13) 
48012

>  <i_f3d_flags>  (13) 
0

>  <s_epik_input>  (13) 
W0NAQF0xMjNbQ0BASF00W0NAQF01KFtPSF0pW0NIMl1bQ0BASF0oT1tDSDNdKVtDQEhdKEMoW0NIM10pKFtDSDNdKVtPSF0pW0NAQF02KFtDQF0zKFtDSDNdKVtPSF0pW0NAQF0oW0NIM10pKFtDQEhdMltDSDJdW0NIXT1bQ0hdMSlbQ0BASF0oW09IXSlbQ0BASF0oW0NIM10pW0NIMl1bQ0BASF02W0NAQEhdNFtDQF0oW0NIM10pKFtPSF0pQyhDNT1PKShbQ0gzXSlbQ0gzXQ==

>  <s_epik_cmdline>  (13) 
J2VwaWtfcHl0aG9uJywgJy1waHQnLCAnMi4wJywgJy1waCcsICc3LjAnLCAnLXRuJywgJzgnLCAnLW1hJywgJzIwMCcsICctaW1hZScsICc8aW5maWxlLm1hZT4nLCAnLW9tYWUnLCAnPG91dGZpbGUubWFlPic=

>  <r_lp_tautomer_probability>  (13) 
1

>  <r_epik_Ionization_Penalty>  (13) 
2.14625e-06

>  <r_epik_Ionization_Penalty_Charging>  (13) 
0

>  <r_epik_Ionization_Penalty_Neutral>  (13) 
2.14625e-06

>  <r_epik_State_Penalty>  (13) 
-0

>  <r_epik_Charging_Adjusted_Penalty>  (13) 
0

>  <i_epik_Tot_Q>  (13) 
0

>  <i_epik_Tot_abs_Q>  (13) 
0

>  <s_lp_Force_Field>  (13) 
OPLS3e

>  <r_lp_Energy>  (13) 
460.406

>  <b_lp_Chiralities_Consistent>  (13) 
1

>  <s_lp_Variant>  (13) 
5:0-1

>  <s_i_glide_gridfile>  (13) 
pfpi4k_grid

>  <i_i_glide_lignum>  (13) 
6

>  <i_i_glide_rotatable_bonds>  (13) 
7

>  <r_i_docking_score>  (13) 
-1.70729

>  <r_i_glide_ligand_efficiency>  (13) 
-0.0449288

>  <r_i_glide_ligand_efficiency_sa>  (13) 
-0.151049

>  <r_i_glide_ligand_efficiency_ln>  (13) 
-0.368143

>  <r_i_glide_gscore>  (13) 
-1.70729

>  <r_i_glide_lipo>  (13) 
0

>  <r_i_glide_hbond>  (13) 
-0.412057

>  <r_i_glide_metal>  (13) 
-0

>  <r_i_glide_rewards>  (13) 
0

>  <r_i_glide_evdw>  (13) 
-18.4822

>  <r_i_glide_ecoul>  (13) 
-4.60091

>  <r_i_glide_erotb>  (13) 
0.0726897

>  <r_i_glide_esite>  (13) 
0

>  <r_i_glide_emodel>  (13) 
-19.544

>  <r_i_glide_energy>  (13) 
-23.0831

>  <r_i_glide_einternal>  (13) 
3.83052

>  <r_i_glide_intrahb_reward>  (13) 
-0

>  <i_i_glide_confnum>  (13) 
3

>  <i_i_glide_posenum>  (13) 
24

>  <r_i_glide_eff_state_penalty>  (13) 
0

>  <ligand_id>  (13) 
5

>  <original_smiles>  (13) 
COC1CC2(O)C(=O)C(C)(C)C(C)(O)C3C2C24C=CCC2C2(C)C(O)C(C)CC3C2(C1C(C)(C)O)C4(C)O

>  <smiles>  (13) 
[H]OC1([H])C([H])(C([H])([H])[H])C([H])([H])C2([H])C3([H])C4([H])C(O[H])(C(=O)C(C([H])([H])[H])(C([H])([H])[H])C3(O[H])C([H])([H])[H])C([H])([H])C([H])(OC([H])([H])[H])C([H])(C(O[H])(C([H])([H])[H])C([H])([H])[H])C23C(O[H])(C([H])([H])[H])C42C([H])=C([H])C([H])([H])C2([H])C13C([H])([H])[H]

$$$$
5:0:1
     RDKit          3D

 86 91  0  0  1  0  0  0  0  0999 V2000
    5.1652    2.2886    7.9808 C   0  0  0  0  0  0  0  0  0  0  0  0
    3.9526    1.7223    7.4906 O   0  0  0  0  0  0  0  0  0  0  0  0
    3.4138    2.2651    6.2735 C   0  0  2  0  0  0  0  0  0  0  0  0
    2.8661    3.7890    6.5219 C   0  0  0  0  0  0  0  0  0  0  0  0
    1.4429    3.9981    7.1486 C   0  0  1  0  0  0  0  0  0  0  0  0
    1.9592    3.4188    8.3539 O   0  0  0  0  0  0  0  0  0  0  0  0
    0.8737    5.1911    7.8633 C   0  0  0  0  0  0  0  0  0  0  0  0
    1.3427    6.3577    7.7114 O   0  0  0  0  0  0  0  0  0  0  0  0
   -0.3222    4.8539    8.8370 C   0  0  0  0  0  0  0  0  0  0  0  0
    0.2337    4.9065   10.2908 C   0  0  0  0  0  0  0  0  0  0  0  0
   -1.3264    6.0331    8.7128 C   0  0  0  0  0  0  0  0  0  0  0  0
   -1.0612    3.3905    8.5351 C   0  0  1  0  0  0  0  0  0  0  0  0
   -1.5173    2.6322    9.8248 C   0  0  0  0  0  0  0  0  0  0  0  0
   -2.3485    3.6399    7.9801 O   0  0  0  0  0  0  0  0  0  0  0  0
   -0.4061    2.4643    7.3783 C   0  0  2  0  0  0  0  0  0  0  0  0
    0.0936    3.4804    6.3774 C   0  0  2  0  0  0  0  0  0  0  0  0
   -0.1371    3.0689    4.7987 C   0  0  2  0  0  0  0  0  0  0  0  0
   -0.7711    4.1803    3.9773 C   0  0  0  0  0  0  0  0  0  0  0  0
   -2.0514    3.9475    3.7847 C   0  0  0  0  0  0  0  0  0  0  0  0
   -2.5006    2.6206    4.3747 C   0  0  0  0  0  0  0  0  0  0  0  0
   -1.1275    1.8935    4.4265 C   0  0  2  0  0  0  0  0  0  0  0  0
   -0.5516    0.6449    5.2086 C   0  0  1  0  0  0  0  0  0  0  0  0
   -1.9035    0.5104    6.1017 C   0  0  0  0  0  0  0  0  0  0  0  0
   -0.4248   -0.8692    5.0037 C   0  0  1  0  0  0  0  0  0  0  0  0
    0.2415   -1.2572    3.8332 O   0  0  0  0  0  0  0  0  0  0  0  0
    0.1265   -1.3976    6.4124 C   0  0  1  0  0  0  0  0  0  0  0  0
    1.2505   -2.4509    6.3558 C   0  0  0  0  0  0  0  0  0  0  0  0
    0.4008   -0.2627    7.5277 C   0  0  0  0  0  0  0  0  0  0  0  0
    0.6299    1.2500    7.0394 C   0  0  1  0  0  0  0  0  0  0  0  0
    1.0041    1.2505    5.4721 C   0  0  1  0  0  0  0  0  0  0  0  0
    2.6309    0.9696    5.5759 C   0  0  1  0  0  0  0  0  0  0  0  0
    3.5997    0.2657    4.4712 C   0  0  0  0  0  0  0  0  0  0  0  0
    3.4988   -1.2596    4.4259 C   0  0  0  0  0  0  0  0  0  0  0  0
    3.5980    0.6602    3.0045 C   0  0  0  0  0  0  0  0  0  0  0  0
    4.9648    0.4324    4.8229 O   0  0  0  0  0  0  0  0  0  0  0  0
    1.0376    2.3718    4.2985 C   0  0  1  0  0  0  0  0  0  0  0  0
    1.0062    1.9256    2.7686 C   0  0  0  0  0  0  0  0  0  0  0  0
    2.0375    3.3188    4.0289 O   0  0  0  0  0  0  0  0  0  0  0  0
    5.5588    1.6604    8.7799 H   0  0  0  0  0  0  0  0  0  0  0  0
    5.0075    3.2753    8.4113 H   0  0  0  0  0  0  0  0  0  0  0  0
    5.9377    2.3577    7.2149 H   0  0  0  0  0  0  0  0  0  0  0  0
    4.2701    2.4932    5.6471 H   0  0  0  0  0  0  0  0  0  0  0  0
    3.6131    4.3128    7.1254 H   0  0  0  0  0  0  0  0  0  0  0  0
    2.9843    4.4583    5.6768 H   0  0  0  0  0  0  0  0  0  0  0  0
    2.3427    2.5739    8.1603 H   0  0  0  0  0  0  0  0  0  0  0  0
   -0.5591    4.9802   11.0335 H   0  0  0  0  0  0  0  0  0  0  0  0
    0.8881    5.7652   10.4536 H   0  0  0  0  0  0  0  0  0  0  0  0
    0.8204    4.0271   10.5497 H   0  0  0  0  0  0  0  0  0  0  0  0
   -2.1788    5.9264    9.3824 H   0  0  0  0  0  0  0  0  0  0  0  0
   -1.7097    6.1203    7.6968 H   0  0  0  0  0  0  0  0  0  0  0  0
   -0.8661    6.9977    8.9435 H   0  0  0  0  0  0  0  0  0  0  0  0
   -0.6756    2.2855   10.4261 H   0  0  0  0  0  0  0  0  0  0  0  0
   -2.1102    1.7536    9.5778 H   0  0  0  0  0  0  0  0  0  0  0  0
   -2.1411    3.2514   10.4744 H   0  0  0  0  0  0  0  0  0  0  0  0
   -2.8822    4.0710    8.6376 H   0  0  0  0  0  0  0  0  0  0  0  0
    0.0835    2.2519    8.3083 H   0  0  0  0  0  0  0  0  0  0  0  0
   -0.6395    4.2880    6.3644 H   0  0  0  0  0  0  0  0  0  0  0  0
   -0.1954    5.0343    3.6155 H   0  0  0  0  0  0  0  0  0  0  0  0
   -2.7461    4.5905    3.2516 H   0  0  0  0  0  0  0  0  0  0  0  0
   -2.9677    2.8375    5.3290 H   0  0  0  0  0  0  0  0  0  0  0  0
   -3.2201    2.1402    3.7186 H   0  0  0  0  0  0  0  0  0  0  0  0
   -1.1806    1.5609    3.3947 H   0  0  0  0  0  0  0  0  0  0  0  0
   -1.9507   -0.2523    6.8576 H   0  0  0  0  0  0  0  0  0  0  0  0
   -2.7081    0.1788    5.4466 H   0  0  0  0  0  0  0  0  0  0  0  0
   -2.3104    1.3763    6.6114 H   0  0  0  0  0  0  0  0  0  0  0  0
   -1.3818   -1.3668    4.8242 H   0  0  0  0  0  0  0  0  0  0  0  0
    1.0916   -0.8410    3.8005 H   0  0  0  0  0  0  0  0  0  0  0  0
   -0.6869   -2.0105    6.8142 H   0  0  0  0  0  0  0  0  0  0  0  0
    2.1759   -1.9354    6.2686 H   0  0  0  0  0  0  0  0  0  0  0  0
    1.1138   -3.1694    5.5325 H   0  0  0  0  0  0  0  0  0  0  0  0
    1.3491   -3.0066    7.2959 H   0  0  0  0  0  0  0  0  0  0  0  0
   -0.3777   -0.2631    8.2906 H   0  0  0  0  0  0  0  0  0  0  0  0
    1.2601   -0.6014    8.1119 H   0  0  0  0  0  0  0  0  0  0  0  0
    1.5409    1.3518    7.6117 H   0  0  0  0  0  0  0  0  0  0  0  0
    2.7019    0.1879    6.3288 H   0  0  0  0  0  0  0  0  0  0  0  0
    2.4897   -1.5599    4.1776 H   0  0  0  0  0  0  0  0  0  0  0  0
    3.8033   -1.7015    5.3760 H   0  0  0  0  0  0  0  0  0  0  0  0
    4.1242   -1.7101    3.6521 H   0  0  0  0  0  0  0  0  0  0  0  0
    2.6609    0.3287    2.5708 H   0  0  0  0  0  0  0  0  0  0  0  0
    4.3285    0.1395    2.3946 H   0  0  0  0  0  0  0  0  0  0  0  0
    3.7807    1.7253    2.8815 H   0  0  0  0  0  0  0  0  0  0  0  0
    5.1590    1.3576    4.7516 H   0  0  0  0  0  0  0  0  0  0  0  0
    0.6489    0.9005    2.6351 H   0  0  0  0  0  0  0  0  0  0  0  0
    1.9286    2.0043    2.2115 H   0  0  0  0  0  0  0  0  0  0  0  0
    0.3968    2.5650    2.1520 H   0  0  0  0  0  0  0  0  0  0  0  0
    1.7999    3.7727    3.2369 H   0  0  0  0  0  0  0  0  0  0  0  0
  1  2  1  0
  1 39  1  0
  1 40  1  0
  1 41  1  0
  2  3  1  0
  3 31  1  0
  3  4  1  0
  3 42  1  6
  4  5  1  0
  4 43  1  0
  4 44  1  0
  5 16  1  0
  5  6  1  1
  5  7  1  0
  6 45  1  0
  7  8  2  0
  7  9  1  0
  9 10  1  0
  9 11  1  0
  9 12  1  0
 10 46  1  0
 10 47  1  0
 10 48  1  0
 11 49  1  0
 11 50  1  0
 11 51  1  0
 12 13  1  0
 12 14  1  6
 12 15  1  0
 13 52  1  0
 13 53  1  0
 13 54  1  0
 14 55  1  0
 15 29  1  0
 15 16  1  0
 15 56  1  6
 16 17  1  0
 16 57  1  1
 17 21  1  0
 17 36  1  0
 17 18  1  6
 18 19  2  0
 18 58  1  0
 19 20  1  0
 19 59  1  0
 20 21  1  0
 20 60  1  0
 20 61  1  0
 21 22  1  0
 21 62  1  6
 22 30  1  0
 22 23  1  1
 22 24  1  0
 23 63  1  0
 23 64  1  0
 23 65  1  0
 24 25  1  0
 24 26  1  0
 24 66  1  6
 25 67  1  0
 26 27  1  0
 26 28  1  0
 26 68  1  1
 27 69  1  0
 27 70  1  0
 27 71  1  0
 28 29  1  0
 28 72  1  0
 28 73  1  0
 29 30  1  0
 29 74  1  1
 30 31  1  0
 30 36  1  6
 31 32  1  0
 31 75  1  1
 32 33  1  0
 32 34  1  0
 32 35  1  0
 33 76  1  0
 33 77  1  0
 33 78  1  0
 34 79  1  0
 34 80  1  0
 34 81  1  0
 35 82  1  0
 36 37  1  0
 36 38  1  6
 37 83  1  0
 37 84  1  0
 37 85  1  0
 38 86  1  0
M  END
>  <i_m_ct_stereo_status>  (14) 
1

>  <s_m_source_file>  (14) 
/var/tmp/pbs.5076255.sched01/tmp98udq4tg/0t315e5yz.sdf

>  <i_m_source_file_index>  (14) 
6

>  <i_lp_mmshare_version>  (14) 
48012

>  <i_f3d_flags>  (14) 
0

>  <s_epik_input>  (14) 
W0NAQF0xMjNbQ0BASF00W0NAQF01KFtPSF0pW0NIMl1bQ0BASF0oT1tDSDNdKVtDQEhdKEMoW0NIM10pKFtDSDNdKVtPSF0pW0NAQF02KFtDQF0zKFtDSDNdKVtPSF0pW0NAQF0oW0NIM10pKFtDQEhdMltDSDJdW0NIXT1bQ0hdMSlbQ0BASF0oW09IXSlbQ0BASF0oW0NIM10pW0NIMl1bQ0BASF02W0NAQEhdNFtDQF0oW0NIM10pKFtPSF0pQyhDNT1PKShbQ0gzXSlbQ0gzXQ==

>  <s_epik_cmdline>  (14) 
J2VwaWtfcHl0aG9uJywgJy1waHQnLCAnMi4wJywgJy1waCcsICc3LjAnLCAnLXRuJywgJzgnLCAnLW1hJywgJzIwMCcsICctaW1hZScsICc8aW5maWxlLm1hZT4nLCAnLW9tYWUnLCAnPG91dGZpbGUubWFlPic=

>  <r_lp_tautomer_probability>  (14) 
1

>  <r_epik_Ionization_Penalty>  (14) 
2.14625e-06

>  <r_epik_Ionization_Penalty_Charging>  (14) 
0

>  <r_epik_Ionization_Penalty_Neutral>  (14) 
2.14625e-06

>  <r_epik_State_Penalty>  (14) 
-0

>  <r_epik_Charging_Adjusted_Penalty>  (14) 
0

>  <i_epik_Tot_Q>  (14) 
0

>  <i_epik_Tot_abs_Q>  (14) 
0

>  <s_lp_Force_Field>  (14) 
OPLS3e

>  <r_lp_Energy>  (14) 
460.406

>  <b_lp_Chiralities_Consistent>  (14) 
1

>  <s_lp_Variant>  (14) 
5:0-1

>  <s_i_glide_gridfile>  (14) 
pfpi4k_grid

>  <i_i_glide_lignum>  (14) 
6

>  <i_i_glide_rotatable_bonds>  (14) 
7

>  <r_i_docking_score>  (14) 
-0.613583

>  <r_i_glide_ligand_efficiency>  (14) 
-0.0161469

>  <r_i_glide_ligand_efficiency_sa>  (14) 
-0.0542856

>  <r_i_glide_ligand_efficiency_ln>  (14) 
-0.132307

>  <r_i_glide_gscore>  (14) 
-0.613583

>  <r_i_glide_lipo>  (14) 
-0.00246798

>  <r_i_glide_hbond>  (14) 
0

>  <r_i_glide_metal>  (14) 
-0

>  <r_i_glide_rewards>  (14) 
0

>  <r_i_glide_evdw>  (14) 
-18.7107

>  <r_i_glide_ecoul>  (14) 
1.67821

>  <r_i_glide_erotb>  (14) 
0.0726897

>  <r_i_glide_esite>  (14) 
0

>  <r_i_glide_emodel>  (14) 
-12.019

>  <r_i_glide_energy>  (14) 
-17.0325

>  <r_i_glide_einternal>  (14) 
6.10901

>  <r_i_glide_intrahb_reward>  (14) 
-0

>  <i_i_glide_confnum>  (14) 
1

>  <i_i_glide_posenum>  (14) 
26

>  <r_i_glide_eff_state_penalty>  (14) 
0

>  <ligand_id>  (14) 
5

>  <original_smiles>  (14) 
COC1CC2(O)C(=O)C(C)(C)C(C)(O)C3C2C24C=CCC2C2(C)C(O)C(C)CC3C2(C1C(C)(C)O)C4(C)O

>  <smiles>  (14) 
[H]OC1([H])C([H])(C([H])([H])[H])C([H])([H])C2([H])C3([H])C4([H])C(O[H])(C(=O)C(C([H])([H])[H])(C([H])([H])[H])C3(O[H])C([H])([H])[H])C([H])([H])C([H])(OC([H])([H])[H])C([H])(C(O[H])(C([H])([H])[H])C([H])([H])[H])C23C(O[H])(C([H])([H])[H])C42C([H])=C([H])C([H])([H])C2([H])C13C([H])([H])[H]

$$$$
6:0:0
     RDKit          3D

 31 32  0  0  1  0  0  0  0  0999 V2000
    3.9330    1.0360   -5.2670 C   0  0  0  0  0  0  0  0  0  0  0  0
    3.4918   -0.0452   -4.2814 C   0  0  2  0  0  0  0  0  0  0  0  0
    4.1429    0.0615   -2.9107 C   0  0  0  0  0  0  0  0  0  0  0  0
    3.5689   -0.9953   -1.9694 C   0  0  0  0  0  0  0  0  0  0  0  0
    3.8268   -2.4329   -2.4792 C   0  0  2  0  0  0  0  0  0  0  0  0
    3.2784   -2.5357   -3.9138 C   0  0  0  0  0  0  0  0  0  0  0  0
    3.8274   -1.3947   -4.8048 C   0  0  0  0  0  0  0  0  0  0  0  0
    3.2272   -3.4212   -1.5706 N   0  0  0  0  0  0  0  0  0  0  0  0
    4.1712   -3.7731   -0.6030 N   0  0  0  0  0  0  0  0  0  0  0  0
    3.6594   -4.1578    0.7035 C   0  0  0  0  0  0  0  0  0  0  0  0
    2.9303   -5.4931    0.6370 C   0  0  0  0  0  0  0  0  0  0  0  0
    1.6780   -5.4582    0.4909 O   0  0  0  0  0  0  0  0  0  0  0  0
    3.6458   -6.5056    0.7339 O   0  0  0  0  0  0  0  0  0  0  0  0
    5.5371   -3.6469   -0.8890 C   0  0  0  0  0  0  0  0  0  0  0  0
    6.4976   -3.9774   -0.2159 O   0  0  0  0  0  0  0  0  0  0  0  0
    5.6272   -2.7905   -2.4689 S   0  0  0  0  0  0  0  0  0  0  0  0
    4.9984    0.9905   -5.4544 H   0  0  0  0  0  0  0  0  0  0  0  0
    3.6743    2.0132   -4.8536 H   0  0  0  0  0  0  0  0  0  0  0  0
    3.5174    0.9208   -6.2680 H   0  0  0  0  0  0  0  0  0  0  0  0
    2.4006    0.0734   -4.2154 H   0  0  0  0  0  0  0  0  0  0  0  0
    5.2258   -0.0206   -2.7776 H   0  0  0  0  0  0  0  0  0  0  0  0
    3.8501    1.0813   -2.7469 H   0  0  0  0  0  0  0  0  0  0  0  0
    3.9523   -0.8396   -0.9570 H   0  0  0  0  0  0  0  0  0  0  0  0
    2.5055   -0.8245   -1.9859 H   0  0  0  0  0  0  0  0  0  0  0  0
    3.5311   -3.4998   -4.3459 H   0  0  0  0  0  0  0  0  0  0  0  0
    2.1885   -2.4843   -3.9063 H   0  0  0  0  0  0  0  0  0  0  0  0
    3.4300   -1.3410   -5.8173 H   0  0  0  0  0  0  0  0  0  0  0  0
    4.9104   -1.3928   -4.8559 H   0  0  0  0  0  0  0  0  0  0  0  0
    3.0061   -4.2648   -2.1105 H   0  0  0  0  0  0  0  0  0  0  0  0
    4.4817   -4.2390    1.4113 H   0  0  0  0  0  0  0  0  0  0  0  0
    2.9957   -3.3726    1.0728 H   0  0  0  0  0  0  0  0  0  0  0  0
  1  2  1  0
  1 17  1  0
  1 18  1  0
  1 19  1  0
  2  7  1  0
  2  3  1  0
  2 20  1  1
  3  4  1  0
  3 21  1  0
  3 22  1  0
  4  5  1  0
  4 23  1  0
  4 24  1  0
  5 16  1  6
  5  6  1  0
  5  8  1  0
  6  7  1  0
  6 25  1  0
  6 26  1  0
  7 27  1  0
  7 28  1  0
  8  9  1  0
  8 29  1  0
  9 10  1  0
  9 14  1  0
 10 11  1  0
 10 30  1  0
 10 31  1  0
 11 12  2  0
 11 13  1  0
 14 15  2  0
 14 16  1  0
M  CHG  1  13  -1
M  END
>  <i_m_ct_stereo_status>  (15) 
1

>  <s_m_source_file>  (15) 
/var/tmp/pbs.5076255.sched01/tmp98udq4tg/0t315e5yz.sdf

>  <i_m_source_file_index>  (15) 
7

>  <i_lp_mmshare_version>  (15) 
48012

>  <i_f3d_flags>  (15) 
0

>  <s_epik_input>  (15) 
W0NIMl0xW0NIMl1bQ0BIXShbQ0gzXSlbQ0gyXVtDSDJdW0NAQF0xMltOSF1OKEMoPU8pUzIpW0NIMl1DKD1PKVtPSF0=

>  <s_epik_cmdline>  (15) 
J2VwaWtfcHl0aG9uJywgJy1waHQnLCAnMi4wJywgJy1waCcsICc3LjAnLCAnLXRuJywgJzgnLCAnLW1hJywgJzIwMCcsICctaW1hZScsICc8aW5maWxlLm1hZT4nLCAnLW9tYWUnLCAnPG91dGZpbGUubWFlPic=

>  <r_epik_Ionization_Penalty>  (15) 
0.000434797

>  <r_epik_Ionization_Penalty_Charging>  (15) 
0.000433372

>  <r_epik_Ionization_Penalty_Neutral>  (15) 
1.42506e-06

>  <r_epik_State_Penalty>  (15) 
0.000267043

>  <r_epik_Charging_Adjusted_Penalty>  (15) 
0.000700415

>  <i_epik_Tot_Q>  (15) 
-1

>  <i_epik_Tot_abs_Q>  (15) 
1

>  <s_lp_Force_Field>  (15) 
OPLS3e

>  <r_lp_Energy>  (15) 
0.597998

>  <b_lp_Chiralities_Consistent>  (15) 
1

>  <s_lp_Variant>  (15) 
6:0-1

>  <s_i_glide_gridfile>  (15) 
pfpi4k_grid

>  <i_i_glide_lignum>  (15) 
7

>  <i_i_glide_rotatable_bonds>  (15) 
2

>  <r_i_docking_score>  (15) 
-3.81015

>  <r_i_glide_ligand_efficiency>  (15) 
-0.238134

>  <r_i_glide_ligand_efficiency_sa>  (15) 
-0.600061

>  <r_i_glide_ligand_efficiency_ln>  (15) 
-1.00996

>  <r_i_glide_gscore>  (15) 
-3.81015

>  <r_i_glide_lipo>  (15) 
-0.539962

>  <r_i_glide_hbond>  (15) 
-0.460266

>  <r_i_glide_metal>  (15) 
-0

>  <r_i_glide_rewards>  (15) 
-1.936

>  <r_i_glide_evdw>  (15) 
-10.2472

>  <r_i_glide_ecoul>  (15) 
-4.17231

>  <r_i_glide_erotb>  (15) 
0.293318

>  <r_i_glide_esite>  (15) 
-0.0290348

>  <r_i_glide_emodel>  (15) 
-15.4926

>  <r_i_glide_energy>  (15) 
-14.4195

>  <r_i_glide_einternal>  (15) 
1.24221

>  <r_i_glide_intrahb_reward>  (15) 
-0

>  <i_i_glide_confnum>  (15) 
3

>  <i_i_glide_posenum>  (15) 
30

>  <r_i_glide_eff_state_penalty>  (15) 
0

>  <ligand_id>  (15) 
6

>  <original_smiles>  (15) 
CC1CCC2(CC1)NN(CC(=O)O)C(=O)S2

>  <smiles>  (15) 
[H]N1N(C([H])([H])C(=O)[O-])C(=O)SC12C([H])([H])C([H])([H])C([H])(C([H])([H])[H])C([H])([H])C2([H])[H]

$$$$
6:0:1
     RDKit          3D

 31 32  0  0  1  0  0  0  0  0999 V2000
    3.9366    0.1433   -4.9094 C   0  0  0  0  0  0  0  0  0  0  0  0
    3.4891   -0.7610   -3.7706 C   0  0  2  0  0  0  0  0  0  0  0  0
    4.3244   -0.5165   -2.4990 C   0  0  0  0  0  0  0  0  0  0  0  0
    3.8919   -1.4333   -1.3384 C   0  0  0  0  0  0  0  0  0  0  0  0
    3.9485   -2.9293   -1.7148 C   0  0  2  0  0  0  0  0  0  0  0  0
    3.1405   -3.1708   -3.0111 C   0  0  0  0  0  0  0  0  0  0  0  0
    3.5873   -2.2547   -4.1524 C   0  0  0  0  0  0  0  0  0  0  0  0
    3.4661   -3.7588   -0.6092 N   0  0  0  0  0  0  0  0  0  0  0  0
    4.5397   -4.0742    0.2229 N   0  0  0  0  0  0  0  0  0  0  0  0
    4.2393   -4.2984    1.6311 C   0  0  0  0  0  0  0  0  0  0  0  0
    3.2321   -5.4262    1.8468 C   0  0  0  0  0  0  0  0  0  0  0  0
    2.0087   -5.1688    1.6981 O   0  0  0  0  0  0  0  0  0  0  0  0
    3.7223   -6.5258    2.1673 O   0  0  0  0  0  0  0  0  0  0  0  0
    5.8082   -4.1360   -0.3232 C   0  0  0  0  0  0  0  0  0  0  0  0
    6.8536   -4.5446    0.1666 O   0  0  0  0  0  0  0  0  0  0  0  0
    5.6951   -3.4307   -1.9472 S   0  0  0  0  0  0  0  0  0  0  0  0
    4.9571   -0.1195   -5.1196 H   0  0  0  0  0  0  0  0  0  0  0  0
    3.8889    1.1906   -4.6265 H   0  0  0  0  0  0  0  0  0  0  0  0
    3.3533   -0.0266   -5.8154 H   0  0  0  0  0  0  0  0  0  0  0  0
    2.4437   -0.5354   -3.5361 H   0  0  0  0  0  0  0  0  0  0  0  0
    5.3846   -0.6832   -2.6851 H   0  0  0  0  0  0  0  0  0  0  0  0
    4.2164    0.5344   -2.2287 H   0  0  0  0  0  0  0  0  0  0  0  0
    4.4883   -1.2289   -0.4528 H   0  0  0  0  0  0  0  0  0  0  0  0
    2.8784   -1.1882   -1.0624 H   0  0  0  0  0  0  0  0  0  0  0  0
    3.2622   -4.1862   -3.3675 H   0  0  0  0  0  0  0  0  0  0  0  0
    2.0781   -3.0264   -2.8284 H   0  0  0  0  0  0  0  0  0  0  0  0
    3.0154   -2.4747   -5.0302 H   0  0  0  0  0  0  0  0  0  0  0  0
    4.6080   -2.4971   -4.4063 H   0  0  0  0  0  0  0  0  0  0  0  0
    3.1240   -4.6440   -1.0037 H   0  0  0  0  0  0  0  0  0  0  0  0
    5.1569   -4.5284    2.1755 H   0  0  0  0  0  0  0  0  0  0  0  0
    3.8657   -3.3764    2.0754 H   0  0  0  0  0  0  0  0  0  0  0  0
  1  2  1  0
  1 17  1  0
  1 18  1  0
  1 19  1  0
  2  7  1  0
  2  3  1  0
  2 20  1  1
  3  4  1  0
  3 21  1  0
  3 22  1  0
  4  5  1  0
  4 23  1  0
  4 24  1  0
  5 16  1  6
  5  6  1  0
  5  8  1  0
  6  7  1  0
  6 25  1  0
  6 26  1  0
  7 27  1  0
  7 28  1  0
  8  9  1  0
  8 29  1  0
  9 10  1  0
  9 14  1  0
 10 11  1  0
 10 30  1  0
 10 31  1  0
 11 12  2  0
 11 13  1  0
 14 15  2  0
 14 16  1  0
M  CHG  1  13  -1
M  END
>  <i_m_ct_stereo_status>  (16) 
1

>  <s_m_source_file>  (16) 
/var/tmp/pbs.5076255.sched01/tmp98udq4tg/0t315e5yz.sdf

>  <i_m_source_file_index>  (16) 
7

>  <i_lp_mmshare_version>  (16) 
48012

>  <i_f3d_flags>  (16) 
0

>  <s_epik_input>  (16) 
W0NIMl0xW0NIMl1bQ0BIXShbQ0gzXSlbQ0gyXVtDSDJdW0NAQF0xMltOSF1OKEMoPU8pUzIpW0NIMl1DKD1PKVtPSF0=

>  <s_epik_cmdline>  (16) 
J2VwaWtfcHl0aG9uJywgJy1waHQnLCAnMi4wJywgJy1waCcsICc3LjAnLCAnLXRuJywgJzgnLCAnLW1hJywgJzIwMCcsICctaW1hZScsICc8aW5maWxlLm1hZT4nLCAnLW9tYWUnLCAnPG91dGZpbGUubWFlPic=

>  <r_epik_Ionization_Penalty>  (16) 
0.000434797

>  <r_epik_Ionization_Penalty_Charging>  (16) 
0.000433372

>  <r_epik_Ionization_Penalty_Neutral>  (16) 
1.42506e-06

>  <r_epik_State_Penalty>  (16) 
0.000267043

>  <r_epik_Charging_Adjusted_Penalty>  (16) 
0.000700415

>  <i_epik_Tot_Q>  (16) 
-1

>  <i_epik_Tot_abs_Q>  (16) 
1

>  <s_lp_Force_Field>  (16) 
OPLS3e

>  <r_lp_Energy>  (16) 
0.597998

>  <b_lp_Chiralities_Consistent>  (16) 
1

>  <s_lp_Variant>  (16) 
6:0-1

>  <s_i_glide_gridfile>  (16) 
pfpi4k_grid

>  <i_i_glide_lignum>  (16) 
7

>  <i_i_glide_rotatable_bonds>  (16) 
2

>  <r_i_docking_score>  (16) 
-3.41296

>  <r_i_glide_ligand_efficiency>  (16) 
-0.21331

>  <r_i_glide_ligand_efficiency_sa>  (16) 
-0.537507

>  <r_i_glide_ligand_efficiency_ln>  (16) 
-0.904672

>  <r_i_glide_gscore>  (16) 
-3.41296

>  <r_i_glide_lipo>  (16) 
-0.679987

>  <r_i_glide_hbond>  (16) 
-0.223259

>  <r_i_glide_metal>  (16) 
-0

>  <r_i_glide_rewards>  (16) 
-1.86215

>  <r_i_glide_evdw>  (16) 
-13.7247

>  <r_i_glide_ecoul>  (16) 
-1.69762

>  <r_i_glide_erotb>  (16) 
0.293318

>  <r_i_glide_esite>  (16) 
0

>  <r_i_glide_emodel>  (16) 
-17.8389

>  <r_i_glide_energy>  (16) 
-15.4223

>  <r_i_glide_einternal>  (16) 
1.49406

>  <r_i_glide_intrahb_reward>  (16) 
-0

>  <i_i_glide_confnum>  (16) 
3

>  <i_i_glide_posenum>  (16) 
2

>  <r_i_glide_eff_state_penalty>  (16) 
0

>  <ligand_id>  (16) 
6

>  <original_smiles>  (16) 
CC1CCC2(CC1)NN(CC(=O)O)C(=O)S2

>  <smiles>  (16) 
[H]N1N(C([H])([H])C(=O)[O-])C(=O)SC12C([H])([H])C([H])([H])C([H])(C([H])([H])[H])C([H])([H])C2([H])[H]

$$$$
6:0:2
     RDKit          3D

 31 32  0  0  1  0  0  0  0  0999 V2000
    3.8380   -0.0050   -4.8560 C   0  0  0  0  0  0  0  0  0  0  0  0
    3.4816   -0.8491   -3.6344 C   0  0  2  0  0  0  0  0  0  0  0  0
    4.3824   -0.5073   -2.4431 C   0  0  0  0  0  0  0  0  0  0  0  0
    4.0293   -1.3023   -1.1854 C   0  0  0  0  0  0  0  0  0  0  0  0
    4.1177   -2.8198   -1.4413 C   0  0  2  0  0  0  0  0  0  0  0  0
    3.2420   -3.1654   -2.6777 C   0  0  0  0  0  0  0  0  0  0  0  0
    3.5755   -2.3451   -3.9266 C   0  0  0  0  0  0  0  0  0  0  0  0
    3.7223   -3.5876   -0.2547 N   0  0  0  0  0  0  0  0  0  0  0  0
    4.8492   -3.7571    0.5399 N   0  0  0  0  0  0  0  0  0  0  0  0
    4.6281   -3.9192    1.9702 C   0  0  0  0  0  0  0  0  0  0  0  0
    4.1712   -2.6140    2.6589 C   0  0  0  0  0  0  0  0  0  0  0  0
    5.0622   -1.8876    3.1537 O   0  0  0  0  0  0  0  0  0  0  0  0
    2.9396   -2.3895    2.6791 O   0  0  0  0  0  0  0  0  0  0  0  0
    6.0808   -3.8410   -0.0750 C   0  0  0  0  0  0  0  0  0  0  0  0
    7.1556   -4.1896    0.4032 O   0  0  0  0  0  0  0  0  0  0  0  0
    5.8459   -3.2926   -1.7424 S   0  0  0  0  0  0  0  0  0  0  0  0
    4.8608   -0.2231   -5.1142 H   0  0  0  0  0  0  0  0  0  0  0  0
    3.7783    1.0672   -4.6616 H   0  0  0  0  0  0  0  0  0  0  0  0
    3.2310   -0.2356   -5.7317 H   0  0  0  0  0  0  0  0  0  0  0  0
    2.4640   -0.6074   -3.3448 H   0  0  0  0  0  0  0  0  0  0  0  0
    5.4312   -0.6312   -2.6819 H   0  0  0  0  0  0  0  0  0  0  0  0
    4.2201    0.5406   -2.2558 H   0  0  0  0  0  0  0  0  0  0  0  0
    4.6966   -1.0103   -0.3597 H   0  0  0  0  0  0  0  0  0  0  0  0
    3.0248   -1.0564   -0.8598 H   0  0  0  0  0  0  0  0  0  0  0  0
    3.3985   -4.1997   -2.9637 H   0  0  0  0  0  0  0  0  0  0  0  0
    2.1834   -3.0401   -2.4373 H   0  0  0  0  0  0  0  0  0  0  0  0
    2.8955   -2.6316   -4.7188 H   0  0  0  0  0  0  0  0  0  0  0  0
    4.5909   -2.5961   -4.2531 H   0  0  0  0  0  0  0  0  0  0  0  0
    3.3738   -4.4963   -0.5340 H   0  0  0  0  0  0  0  0  0  0  0  0
    3.8648   -4.6774    2.1420 H   0  0  0  0  0  0  0  0  0  0  0  0
    5.5475   -4.2454    2.4662 H   0  0  0  0  0  0  0  0  0  0  0  0
  1  2  1  0
  1 17  1  0
  1 18  1  0
  1 19  1  0
  2  7  1  0
  2  3  1  0
  2 20  1  1
  3  4  1  0
  3 21  1  0
  3 22  1  0
  4  5  1  0
  4 23  1  0
  4 24  1  0
  5 16  1  6
  5  6  1  0
  5  8  1  0
  6  7  1  0
  6 25  1  0
  6 26  1  0
  7 27  1  0
  7 28  1  0
  8  9  1  0
  8 29  1  0
  9 10  1  0
  9 14  1  0
 10 11  1  0
 10 30  1  0
 10 31  1  0
 11 12  2  0
 11 13  1  0
 14 15  2  0
 14 16  1  0
M  CHG  1  13  -1
M  END
>  <i_m_ct_stereo_status>  (17) 
1

>  <s_m_source_file>  (17) 
/var/tmp/pbs.5076255.sched01/tmp98udq4tg/0t315e5yz.sdf

>  <i_m_source_file_index>  (17) 
7

>  <i_lp_mmshare_version>  (17) 
48012

>  <i_f3d_flags>  (17) 
0

>  <s_epik_input>  (17) 
W0NIMl0xW0NIMl1bQ0BIXShbQ0gzXSlbQ0gyXVtDSDJdW0NAQF0xMltOSF1OKEMoPU8pUzIpW0NIMl1DKD1PKVtPSF0=

>  <s_epik_cmdline>  (17) 
J2VwaWtfcHl0aG9uJywgJy1waHQnLCAnMi4wJywgJy1waCcsICc3LjAnLCAnLXRuJywgJzgnLCAnLW1hJywgJzIwMCcsICctaW1hZScsICc8aW5maWxlLm1hZT4nLCAnLW9tYWUnLCAnPG91dGZpbGUubWFlPic=

>  <r_epik_Ionization_Penalty>  (17) 
0.000434797

>  <r_epik_Ionization_Penalty_Charging>  (17) 
0.000433372

>  <r_epik_Ionization_Penalty_Neutral>  (17) 
1.42506e-06

>  <r_epik_State_Penalty>  (17) 
0.000267043

>  <r_epik_Charging_Adjusted_Penalty>  (17) 
0.000700415

>  <i_epik_Tot_Q>  (17) 
-1

>  <i_epik_Tot_abs_Q>  (17) 
1

>  <s_lp_Force_Field>  (17) 
OPLS3e

>  <r_lp_Energy>  (17) 
0.597998

>  <b_lp_Chiralities_Consistent>  (17) 
1

>  <s_lp_Variant>  (17) 
6:0-1

>  <s_i_glide_gridfile>  (17) 
pfpi4k_grid

>  <i_i_glide_lignum>  (17) 
7

>  <i_i_glide_rotatable_bonds>  (17) 
2

>  <r_i_docking_score>  (17) 
-3.15616

>  <r_i_glide_ligand_efficiency>  (17) 
-0.19726

>  <r_i_glide_ligand_efficiency_sa>  (17) 
-0.497065

>  <r_i_glide_ligand_efficiency_ln>  (17) 
-0.836605

>  <r_i_glide_gscore>  (17) 
-3.15616

>  <r_i_glide_lipo>  (17) 
-0.734953

>  <r_i_glide_hbond>  (17) 
0

>  <r_i_glide_metal>  (17) 
-0

>  <r_i_glide_rewards>  (17) 
-1.89564

>  <r_i_glide_evdw>  (17) 
-16.2547

>  <r_i_glide_ecoul>  (17) 
-0.0410258

>  <r_i_glide_erotb>  (17) 
0.293318

>  <r_i_glide_esite>  (17) 
0

>  <r_i_glide_emodel>  (17) 
-19.2692

>  <r_i_glide_energy>  (17) 
-16.2957

>  <r_i_glide_einternal>  (17) 
0.0365545

>  <r_i_glide_intrahb_reward>  (17) 
-0

>  <i_i_glide_confnum>  (17) 
3

>  <i_i_glide_posenum>  (17) 
8

>  <r_i_glide_eff_state_penalty>  (17) 
0

>  <ligand_id>  (17) 
6

>  <original_smiles>  (17) 
CC1CCC2(CC1)NN(CC(=O)O)C(=O)S2

>  <smiles>  (17) 
[H]N1N(C([H])([H])C(=O)[O-])C(=O)SC12C([H])([H])C([H])([H])C([H])(C([H])([H])[H])C([H])([H])C2([H])[H]

$$$$
7:0:0
     RDKit          3D

 26 28  0  0  1  0  0  0  0  0999 V2000
    5.7772   -1.3097    1.5044 C   0  0  0  0  0  0  0  0  0  0  0  0
    5.5831   -1.1399    0.1939 N   0  0  0  0  0  0  0  0  0  0  0  0
    5.2589   -2.2070   -0.5735 C   0  0  0  0  0  0  0  0  0  0  0  0
    5.1290   -1.9990   -1.9521 N   0  0  0  0  0  0  0  0  0  0  0  0
    4.3493   -0.8788   -2.4660 C   0  0  0  0  0  0  0  0  0  0  0  0
    3.1764   -1.3656   -3.3361 C   0  0  0  0  0  0  0  0  0  0  0  0
    3.6633   -2.2804   -4.3188 O   0  0  0  0  0  0  0  0  0  0  0  0
    4.2087   -3.4437   -3.7098 C   0  0  0  0  0  0  0  0  0  0  0  0
    5.4551   -3.0533   -2.8985 C   0  0  0  0  0  0  0  0  0  0  0  0
    5.1403   -3.4759    0.0439 C   0  0  0  0  0  0  0  0  0  0  0  0
    4.8398   -4.8391   -0.2911 C   0  0  0  0  0  0  0  0  0  0  0  0
    4.9057   -5.6249    0.7564 N   0  0  0  0  0  0  0  0  0  0  0  0
    5.2348   -4.8175    1.7970 N   0  0  0  0  0  0  0  0  0  0  0  0
    5.3830   -3.4925    1.4358 C   0  0  0  0  0  0  0  0  0  0  0  0
    5.7111   -2.4325    2.2226 N   0  0  0  0  0  0  0  0  0  0  0  0
    5.3438   -5.1968    2.7287 H   0  0  0  0  0  0  0  0  0  0  0  0
    6.0471   -0.4186    2.0498 H   0  0  0  0  0  0  0  0  0  0  0  0
    3.9625   -0.2720   -1.6523 H   0  0  0  0  0  0  0  0  0  0  0  0
    5.0040   -0.2551   -3.0760 H   0  0  0  0  0  0  0  0  0  0  0  0
    2.3987   -1.8352   -2.7322 H   0  0  0  0  0  0  0  0  0  0  0  0
    2.7071   -0.5292   -3.8547 H   0  0  0  0  0  0  0  0  0  0  0  0
    3.4454   -3.8953   -3.0783 H   0  0  0  0  0  0  0  0  0  0  0  0
    4.4771   -4.1662   -4.4804 H   0  0  0  0  0  0  0  0  0  0  0  0
    6.2409   -2.6538   -3.5253 H   0  0  0  0  0  0  0  0  0  0  0  0
    5.9190   -3.9142   -2.4305 H   0  0  0  0  0  0  0  0  0  0  0  0
    4.6086   -5.2643   -1.2522 H   0  0  0  0  0  0  0  0  0  0  0  0
  1 15  2  0
  1  2  1  0
  1 17  1  0
  2  3  2  0
  3  4  1  0
  3 10  1  0
  4  9  1  0
  4  5  1  0
  5  6  1  0
  5 18  1  0
  5 19  1  0
  6  7  1  0
  6 20  1  0
  6 21  1  0
  7  8  1  0
  8  9  1  0
  8 22  1  0
  8 23  1  0
  9 24  1  0
  9 25  1  0
 10 14  2  0
 10 11  1  0
 11 12  2  0
 11 26  1  0
 12 13  1  0
 13 16  1  0
 13 14  1  0
 14 15  1  0
M  END
>  <i_m_ct_stereo_status>  (18) 
1

>  <s_m_source_file>  (18) 
/var/tmp/pbs.5076255.sched01/tmp98udq4tg/0t315e5yz.sdf

>  <i_m_source_file_index>  (18) 
8

>  <i_lp_mmshare_version>  (18) 
48012

>  <i_f3d_flags>  (18) 
0

>  <s_epik_input>  (18) 
W2NIXTFuW25IXWMoYzEyKW5bY0hdbmMyTjNbQ0gyXVtDSDJdT1tDSDJdW0NIMl0z

>  <s_epik_cmdline>  (18) 
J2VwaWtfcHl0aG9uJywgJy1waHQnLCAnMi4wJywgJy1waCcsICc3LjAnLCAnLXRuJywgJzgnLCAnLW1hJywgJzIwMCcsICctaW1hZScsICc8aW5maWxlLm1hZT4nLCAnLW9tYWUnLCAnPG91dGZpbGUubWFlPic=

>  <r_epik_Ionization_Penalty>  (18) 
0.00862966

>  <r_epik_Ionization_Penalty_Charging>  (18) 
0.00862165

>  <r_epik_Ionization_Penalty_Neutral>  (18) 
8.01212e-06

>  <r_epik_State_Penalty>  (18) 
0.0219228

>  <r_epik_Charging_Adjusted_Penalty>  (18) 
0.0305445

>  <i_epik_Tot_Q>  (18) 
0

>  <i_epik_Tot_abs_Q>  (18) 
0

>  <s_lp_Force_Field>  (18) 
OPLS3e

>  <r_lp_Energy>  (18) 
32.2661

>  <b_lp_Chiralities_Consistent>  (18) 
1

>  <s_lp_Variant>  (18) 
7:0-1

>  <s_i_glide_gridfile>  (18) 
pfpi4k_grid

>  <i_i_glide_lignum>  (18) 
8

>  <i_i_glide_rotatable_bonds>  (18) 
1

>  <r_i_docking_score>  (18) 
-4.44507

>  <r_i_glide_ligand_efficiency>  (18) 
-0.296338

>  <r_i_glide_ligand_efficiency_sa>  (18) 
-0.730832

>  <r_i_glide_ligand_efficiency_ln>  (18) 
-1.19876

>  <r_i_glide_gscore>  (18) 
-4.44507

>  <r_i_glide_lipo>  (18) 
-0.474065

>  <r_i_glide_hbond>  (18) 
-0.32

>  <r_i_glide_metal>  (18) 
-0

>  <r_i_glide_rewards>  (18) 
-2.30348

>  <r_i_glide_evdw>  (18) 
-22.477

>  <r_i_glide_ecoul>  (18) 
-4.0007

>  <r_i_glide_erotb>  (18) 
0.391152

>  <r_i_glide_esite>  (18) 
-0.014724

>  <r_i_glide_emodel>  (18) 
-33.6997

>  <r_i_glide_energy>  (18) 
-26.4777

>  <r_i_glide_einternal>  (18) 
0.73905

>  <r_i_glide_intrahb_reward>  (18) 
-0

>  <i_i_glide_confnum>  (18) 
5

>  <i_i_glide_posenum>  (18) 
31

>  <r_i_glide_eff_state_penalty>  (18) 
0

>  <ligand_id>  (18) 
7

>  <original_smiles>  (18) 
c1nc(N2CCOCC2)c2cn[nH]c2n1

>  <smiles>  (18) 
[H]c1nc(N2C([H])([H])C([H])([H])OC([H])([H])C2([H])[H])c2c([H])nn([H])c2n1

$$$$
7:0:1
     RDKit          3D

 26 28  0  0  1  0  0  0  0  0999 V2000
    7.7751   -2.6542   -0.3723 C   0  0  0  0  0  0  0  0  0  0  0  0
    6.9905   -2.2806   -1.3895 N   0  0  0  0  0  0  0  0  0  0  0  0
    5.7927   -2.8928   -1.5568 C   0  0  0  0  0  0  0  0  0  0  0  0
    5.0342   -2.5593   -2.6876 N   0  0  0  0  0  0  0  0  0  0  0  0
    4.4037   -3.5853   -3.5069 C   0  0  0  0  0  0  0  0  0  0  0  0
    2.8749   -3.3935   -3.5400 C   0  0  0  0  0  0  0  0  0  0  0  0
    2.5942   -2.0532   -3.9189 O   0  0  0  0  0  0  0  0  0  0  0  0
    3.0732   -1.1105   -2.9653 C   0  0  0  0  0  0  0  0  0  0  0  0
    4.6052   -1.1894   -2.9110 C   0  0  0  0  0  0  0  0  0  0  0  0
    5.3817   -3.8410   -0.5913 C   0  0  0  0  0  0  0  0  0  0  0  0
    4.2566   -4.6746   -0.2938 C   0  0  0  0  0  0  0  0  0  0  0  0
    4.4413   -5.3677    0.8058 N   0  0  0  0  0  0  0  0  0  0  0  0
    5.6727   -5.0143    1.2559 N   0  0  0  0  0  0  0  0  0  0  0  0
    6.3070   -4.0906    0.4496 C   0  0  0  0  0  0  0  0  0  0  0  0
    7.5373   -3.5356    0.5995 N   0  0  0  0  0  0  0  0  0  0  0  0
    6.0505   -5.4119    2.1062 H   0  0  0  0  0  0  0  0  0  0  0  0
    8.7257   -2.1441   -0.3258 H   0  0  0  0  0  0  0  0  0  0  0  0
    4.7930   -3.4942   -4.5215 H   0  0  0  0  0  0  0  0  0  0  0  0
    4.6652   -4.5844   -3.1572 H   0  0  0  0  0  0  0  0  0  0  0  0
    2.4227   -4.0693   -4.2679 H   0  0  0  0  0  0  0  0  0  0  0  0
    2.4047   -3.6150   -2.5830 H   0  0  0  0  0  0  0  0  0  0  0  0
    2.7486   -0.1188   -3.2765 H   0  0  0  0  0  0  0  0  0  0  0  0
    2.6207   -1.3033   -1.9954 H   0  0  0  0  0  0  0  0  0  0  0  0
    4.9945   -0.5205   -2.1444 H   0  0  0  0  0  0  0  0  0  0  0  0
    5.0031   -0.8706   -3.8733 H   0  0  0  0  0  0  0  0  0  0  0  0
    3.3291   -4.7623   -0.8277 H   0  0  0  0  0  0  0  0  0  0  0  0
  1 15  2  0
  1  2  1  0
  1 17  1  0
  2  3  2  0
  3  4  1  0
  3 10  1  0
  4  9  1  0
  4  5  1  0
  5  6  1  0
  5 18  1  0
  5 19  1  0
  6  7  1  0
  6 20  1  0
  6 21  1  0
  7  8  1  0
  8  9  1  0
  8 22  1  0
  8 23  1  0
  9 24  1  0
  9 25  1  0
 10 14  2  0
 10 11  1  0
 11 12  2  0
 11 26  1  0
 12 13  1  0
 13 16  1  0
 13 14  1  0
 14 15  1  0
M  END
>  <i_m_ct_stereo_status>  (19) 
1

>  <s_m_source_file>  (19) 
/var/tmp/pbs.5076255.sched01/tmp98udq4tg/0t315e5yz.sdf

>  <i_m_source_file_index>  (19) 
8

>  <i_lp_mmshare_version>  (19) 
48012

>  <i_f3d_flags>  (19) 
0

>  <s_epik_input>  (19) 
W2NIXTFuW25IXWMoYzEyKW5bY0hdbmMyTjNbQ0gyXVtDSDJdT1tDSDJdW0NIMl0z

>  <s_epik_cmdline>  (19) 
J2VwaWtfcHl0aG9uJywgJy1waHQnLCAnMi4wJywgJy1waCcsICc3LjAnLCAnLXRuJywgJzgnLCAnLW1hJywgJzIwMCcsICctaW1hZScsICc8aW5maWxlLm1hZT4nLCAnLW9tYWUnLCAnPG91dGZpbGUubWFlPic=

>  <r_epik_Ionization_Penalty>  (19) 
0.00862966

>  <r_epik_Ionization_Penalty_Charging>  (19) 
0.00862165

>  <r_epik_Ionization_Penalty_Neutral>  (19) 
8.01212e-06

>  <r_epik_State_Penalty>  (19) 
0.0219228

>  <r_epik_Charging_Adjusted_Penalty>  (19) 
0.0305445

>  <i_epik_Tot_Q>  (19) 
0

>  <i_epik_Tot_abs_Q>  (19) 
0

>  <s_lp_Force_Field>  (19) 
OPLS3e

>  <r_lp_Energy>  (19) 
32.2661

>  <b_lp_Chiralities_Consistent>  (19) 
1

>  <s_lp_Variant>  (19) 
7:0-1

>  <s_i_glide_gridfile>  (19) 
pfpi4k_grid

>  <i_i_glide_lignum>  (19) 
8

>  <i_i_glide_rotatable_bonds>  (19) 
1

>  <r_i_docking_score>  (19) 
-4.34147

>  <r_i_glide_ligand_efficiency>  (19) 
-0.289431

>  <r_i_glide_ligand_efficiency_sa>  (19) 
-0.713799

>  <r_i_glide_ligand_efficiency_ln>  (19) 
-1.17082

>  <r_i_glide_gscore>  (19) 
-4.34147

>  <r_i_glide_lipo>  (19) 
-0.388505

>  <r_i_glide_hbond>  (19) 
-0.16

>  <r_i_glide_metal>  (19) 
-0

>  <r_i_glide_rewards>  (19) 
-2.37579

>  <r_i_glide_evdw>  (19) 
-22.8034

>  <r_i_glide_ecoul>  (19) 
-4.44643

>  <r_i_glide_erotb>  (19) 
0.391152

>  <r_i_glide_esite>  (19) 
-0.001187

>  <r_i_glide_emodel>  (19) 
-33.5679

>  <r_i_glide_energy>  (19) 
-27.2498

>  <r_i_glide_einternal>  (19) 
2.19632

>  <r_i_glide_intrahb_reward>  (19) 
-0

>  <i_i_glide_confnum>  (19) 
3

>  <i_i_glide_posenum>  (19) 
6

>  <r_i_glide_eff_state_penalty>  (19) 
0

>  <ligand_id>  (19) 
7

>  <original_smiles>  (19) 
c1nc(N2CCOCC2)c2cn[nH]c2n1

>  <smiles>  (19) 
[H]c1nc(N2C([H])([H])C([H])([H])OC([H])([H])C2([H])[H])c2c([H])nn([H])c2n1

$$$$
7:0:2
     RDKit          3D

 26 28  0  0  1  0  0  0  0  0999 V2000
    3.4353   -4.3259    1.1983 C   0  0  0  0  0  0  0  0  0  0  0  0
    3.7515   -4.0051   -0.0590 N   0  0  0  0  0  0  0  0  0  0  0  0
    4.2961   -2.7935   -0.3251 C   0  0  0  0  0  0  0  0  0  0  0  0
    4.6153   -2.4561   -1.6526 N   0  0  0  0  0  0  0  0  0  0  0  0
    4.9396   -3.4480   -2.6660 C   0  0  0  0  0  0  0  0  0  0  0  0
    4.0368   -3.2450   -3.8938 C   0  0  0  0  0  0  0  0  0  0  0  0
    4.1154   -1.8884   -4.3292 O   0  0  0  0  0  0  0  0  0  0  0  0
    3.6520   -0.9685   -3.3466 C   0  0  0  0  0  0  0  0  0  0  0  0
    4.5472   -1.0747   -2.1110 C   0  0  0  0  0  0  0  0  0  0  0  0
    4.5405   -1.9179    0.7599 C   0  0  0  0  0  0  0  0  0  0  0  0
    5.1005   -0.6180    1.0148 C   0  0  0  0  0  0  0  0  0  0  0  0
    5.0647   -0.3174    2.2902 N   0  0  0  0  0  0  0  0  0  0  0  0
    4.4917   -1.3864    2.9051 N   0  0  0  0  0  0  0  0  0  0  0  0
    4.1513   -2.4004    2.0315 C   0  0  0  0  0  0  0  0  0  0  0  0
    3.5805   -3.6034    2.3123 N   0  0  0  0  0  0  0  0  0  0  0  0
    4.3530   -1.3931    3.9081 H   0  0  0  0  0  0  0  0  0  0  0  0
    2.9889   -5.3011    1.3268 H   0  0  0  0  0  0  0  0  0  0  0  0
    5.9795   -3.2993   -2.9605 H   0  0  0  0  0  0  0  0  0  0  0  0
    4.8695   -4.4677   -2.2922 H   0  0  0  0  0  0  0  0  0  0  0  0
    4.3576   -3.8899   -4.7129 H   0  0  0  0  0  0  0  0  0  0  0  0
    3.0045   -3.5021   -3.6643 H   0  0  0  0  0  0  0  0  0  0  0  0
    3.6809    0.0531   -3.7314 H   0  0  0  0  0  0  0  0  0  0  0  0
    2.6180   -1.1785   -3.0789 H   0  0  0  0  0  0  0  0  0  0  0  0
    4.1138   -0.4177   -1.3655 H   0  0  0  0  0  0  0  0  0  0  0  0
    5.5584   -0.7267   -2.3262 H   0  0  0  0  0  0  0  0  0  0  0  0
    5.5231    0.0843    0.3193 H   0  0  0  0  0  0  0  0  0  0  0  0
  1 15  2  0
  1  2  1  0
  1 17  1  0
  2  3  2  0
  3  4  1  0
  3 10  1  0
  4  9  1  0
  4  5  1  0
  5  6  1  0
  5 18  1  0
  5 19  1  0
  6  7  1  0
  6 20  1  0
  6 21  1  0
  7  8  1  0
  8  9  1  0
  8 22  1  0
  8 23  1  0
  9 24  1  0
  9 25  1  0
 10 14  2  0
 10 11  1  0
 11 12  2  0
 11 26  1  0
 12 13  1  0
 13 16  1  0
 13 14  1  0
 14 15  1  0
M  END
>  <i_m_ct_stereo_status>  (20) 
1

>  <s_m_source_file>  (20) 
/var/tmp/pbs.5076255.sched01/tmp98udq4tg/0t315e5yz.sdf

>  <i_m_source_file_index>  (20) 
8

>  <i_lp_mmshare_version>  (20) 
48012

>  <i_f3d_flags>  (20) 
0

>  <s_epik_input>  (20) 
W2NIXTFuW25IXWMoYzEyKW5bY0hdbmMyTjNbQ0gyXVtDSDJdT1tDSDJdW0NIMl0z

>  <s_epik_cmdline>  (20) 
J2VwaWtfcHl0aG9uJywgJy1waHQnLCAnMi4wJywgJy1waCcsICc3LjAnLCAnLXRuJywgJzgnLCAnLW1hJywgJzIwMCcsICctaW1hZScsICc8aW5maWxlLm1hZT4nLCAnLW9tYWUnLCAnPG91dGZpbGUubWFlPic=

>  <r_epik_Ionization_Penalty>  (20) 
0.00862966

>  <r_epik_Ionization_Penalty_Charging>  (20) 
0.00862165

>  <r_epik_Ionization_Penalty_Neutral>  (20) 
8.01212e-06

>  <r_epik_State_Penalty>  (20) 
0.0219228

>  <r_epik_Charging_Adjusted_Penalty>  (20) 
0.0305445

>  <i_epik_Tot_Q>  (20) 
0

>  <i_epik_Tot_abs_Q>  (20) 
0

>  <s_lp_Force_Field>  (20) 
OPLS3e

>  <r_lp_Energy>  (20) 
32.2661

>  <b_lp_Chiralities_Consistent>  (20) 
1

>  <s_lp_Variant>  (20) 
7:0-1

>  <s_i_glide_gridfile>  (20) 
pfpi4k_grid

>  <i_i_glide_lignum>  (20) 
8

>  <i_i_glide_rotatable_bonds>  (20) 
1

>  <r_i_docking_score>  (20) 
-4.08965

>  <r_i_glide_ligand_efficiency>  (20) 
-0.272643

>  <r_i_glide_ligand_efficiency_sa>  (20) 
-0.672396

>  <r_i_glide_ligand_efficiency_ln>  (20) 
-1.10291

>  <r_i_glide_gscore>  (20) 
-4.08965

>  <r_i_glide_lipo>  (20) 
-0.516878

>  <r_i_glide_hbond>  (20) 
-0.386099

>  <r_i_glide_metal>  (20) 
-0

>  <r_i_glide_rewards>  (20) 
-2.01466

>  <r_i_glide_evdw>  (20) 
-23.1431

>  <r_i_glide_ecoul>  (20) 
-2.58257

>  <r_i_glide_erotb>  (20) 
0.391152

>  <r_i_glide_esite>  (20) 
-0.0186268

>  <r_i_glide_emodel>  (20) 
-32.6417

>  <r_i_glide_energy>  (20) 
-25.7257

>  <r_i_glide_einternal>  (20) 
0.204648

>  <r_i_glide_intrahb_reward>  (20) 
-0

>  <i_i_glide_confnum>  (20) 
3

>  <i_i_glide_posenum>  (20) 
14

>  <r_i_glide_eff_state_penalty>  (20) 
0

>  <ligand_id>  (20) 
7

>  <original_smiles>  (20) 
c1nc(N2CCOCC2)c2cn[nH]c2n1

>  <smiles>  (20) 
[H]c1nc(N2C([H])([H])C([H])([H])OC([H])([H])C2([H])[H])c2c([H])nn([H])c2n1

$$$$
7:1:0
     RDKit          3D

 26 28  0  0  1  0  0  0  0  0999 V2000
   -0.4981   -1.4366    6.0148 C   0  0  0  0  0  0  0  0  0  0  0  0
   -1.0996   -0.2442    5.9812 N   0  0  0  0  0  0  0  0  0  0  0  0
   -0.8990    0.5152    4.8757 C   0  0  0  0  0  0  0  0  0  0  0  0
   -1.5568    1.7617    4.8242 N   0  0  0  0  0  0  0  0  0  0  0  0
   -1.7063    2.6108    6.0027 C   0  0  0  0  0  0  0  0  0  0  0  0
   -1.0958    3.9975    5.7096 C   0  0  0  0  0  0  0  0  0  0  0  0
   -1.6555    4.5398    4.5145 O   0  0  0  0  0  0  0  0  0  0  0  0
   -1.3887    3.7278    3.3745 C   0  0  0  0  0  0  0  0  0  0  0  0
   -2.0405    2.3494    3.5806 C   0  0  0  0  0  0  0  0  0  0  0  0
   -0.0674    0.0192    3.8431 C   0  0  0  0  0  0  0  0  0  0  0  0
    0.3512    0.5398    2.6271 C   0  0  0  0  0  0  0  0  0  0  0  0
    1.1468   -0.4456    2.0834 N   0  0  0  0  0  0  0  0  0  0  0  0
    1.2539   -1.5526    2.8942 N   0  0  0  0  0  0  0  0  0  0  0  0
    0.5077   -1.2438    3.9775 C   0  0  0  0  0  0  0  0  0  0  0  0
    0.2655   -1.9821    5.0746 N   0  0  0  0  0  0  0  0  0  0  0  0
   -0.6755   -2.0367    6.8926 H   0  0  0  0  0  0  0  0  0  0  0  0
   -2.7716    2.7216    6.2249 H   0  0  0  0  0  0  0  0  0  0  0  0
   -1.2455    2.1710    6.8894 H   0  0  0  0  0  0  0  0  0  0  0  0
   -1.3019    4.6769    6.5346 H   0  0  0  0  0  0  0  0  0  0  0  0
   -0.0149    3.9343    5.6179 H   0  0  0  0  0  0  0  0  0  0  0  0
   -1.7984    4.1953    2.4815 H   0  0  0  0  0  0  0  0  0  0  0  0
   -0.3141    3.6415    3.2251 H   0  0  0  0  0  0  0  0  0  0  0  0
   -1.8844    1.6986    2.7208 H   0  0  0  0  0  0  0  0  0  0  0  0
   -3.1278    2.4530    3.6503 H   0  0  0  0  0  0  0  0  0  0  0  0
    0.1639    1.4520    2.0826 H   0  0  0  0  0  0  0  0  0  0  0  0
    1.5079   -0.4259    1.1297 H   0  0  0  0  0  0  0  0  0  0  0  0
  1 15  2  0
  1  2  1  0
  1 16  1  0
  2  3  2  0
  3  4  1  0
  3 10  1  0
  4  9  1  0
  4  5  1  0
  5  6  1  0
  5 17  1  0
  5 18  1  0
  6  7  1  0
  6 19  1  0
  6 20  1  0
  7  8  1  0
  8  9  1  0
  8 21  1  0
  8 22  1  0
  9 23  1  0
  9 24  1  0
 10 14  1  0
 10 11  2  0
 11 12  1  0
 11 25  1  0
 12 13  1  0
 12 26  1  0
 13 14  2  0
 14 15  1  0
M  END
>  <i_m_ct_stereo_status>  (21) 
1

>  <s_m_source_file>  (21) 
/var/tmp/pbs.5076255.sched01/tmp98udq4tg/0t315e5yz.sdf

>  <i_m_source_file_index>  (21) 
9

>  <i_lp_mmshare_version>  (21) 
48012

>  <i_f3d_flags>  (21) 
0

>  <s_epik_input>  (21) 
W2NIXTFuW25IXWMoYzEyKW5bY0hdbmMyTjNbQ0gyXVtDSDJdT1tDSDJdW0NIMl0z

>  <s_epik_cmdline>  (21) 
J2VwaWtfcHl0aG9uJywgJy1waHQnLCAnMi4wJywgJy1waCcsICc3LjAnLCAnLXRuJywgJzgnLCAnLW1hJywgJzIwMCcsICctaW1hZScsICc8aW5maWxlLm1hZT4nLCAnLW9tYWUnLCAnPG91dGZpbGUubWFlPic=

>  <r_epik_Ionization_Penalty>  (21) 
0.215212

>  <r_epik_Ionization_Penalty_Charging>  (21) 
0.215182

>  <r_epik_Ionization_Penalty_Neutral>  (21) 
3.0327e-05

>  <r_epik_State_Penalty>  (21) 
2.16961

>  <r_epik_Charging_Adjusted_Penalty>  (21) 
2.38479

>  <i_epik_Tot_Q>  (21) 
0

>  <i_epik_Tot_abs_Q>  (21) 
0

>  <s_lp_Force_Field>  (21) 
OPLS3e

>  <r_lp_Energy>  (21) 
34.7782

>  <b_lp_Chiralities_Consistent>  (21) 
1

>  <s_lp_Variant>  (21) 
7:0-2

>  <s_i_glide_gridfile>  (21) 
pfpi4k_grid

>  <i_i_glide_lignum>  (21) 
9

>  <i_i_glide_rotatable_bonds>  (21) 
1

>  <r_i_docking_score>  (21) 
-3.52049

>  <r_i_glide_ligand_efficiency>  (21) 
-0.234699

>  <r_i_glide_ligand_efficiency_sa>  (21) 
-0.578819

>  <r_i_glide_ligand_efficiency_ln>  (21) 
-0.949419

>  <r_i_glide_gscore>  (21) 
-3.52049

>  <r_i_glide_lipo>  (21) 
-0.0493019

>  <r_i_glide_hbond>  (21) 
-0.188562

>  <r_i_glide_metal>  (21) 
-0

>  <r_i_glide_rewards>  (21) 
-2.00989

>  <r_i_glide_evdw>  (21) 
-16.078

>  <r_i_glide_ecoul>  (21) 
-4.71776

>  <r_i_glide_erotb>  (21) 
0.391152

>  <r_i_glide_esite>  (21) 
-0.15233

>  <r_i_glide_emodel>  (21) 
-26.3858

>  <r_i_glide_energy>  (21) 
-20.7957

>  <r_i_glide_einternal>  (21) 
0.869527

>  <r_i_glide_intrahb_reward>  (21) 
-0

>  <i_i_glide_confnum>  (21) 
3

>  <i_i_glide_posenum>  (21) 
1

>  <r_i_glide_eff_state_penalty>  (21) 
0

>  <ligand_id>  (21) 
7

>  <original_smiles>  (21) 
c1nc(N2CCOCC2)c2cn[nH]c2n1

>  <smiles>  (21) 
[H]c1nc(N2C([H])([H])C([H])([H])OC([H])([H])C2([H])[H])c2c([H])n([H])nc2n1

$$$$
7:1:1
     RDKit          3D

 26 28  0  0  1  0  0  0  0  0999 V2000
    3.3021    1.5286    5.1928 C   0  0  0  0  0  0  0  0  0  0  0  0
    2.0338    1.9382    5.2818 N   0  0  0  0  0  0  0  0  0  0  0  0
    1.2198    1.6856    4.2349 C   0  0  0  0  0  0  0  0  0  0  0  0
   -0.1248    2.1143    4.3248 N   0  0  0  0  0  0  0  0  0  0  0  0
   -0.8085    2.3170    5.6014 C   0  0  0  0  0  0  0  0  0  0  0  0
   -1.3834    3.7441    5.6860 C   0  0  0  0  0  0  0  0  0  0  0  0
   -2.1852    4.0304    4.5412 O   0  0  0  0  0  0  0  0  0  0  0  0
   -1.4383    3.9420    3.3309 C   0  0  0  0  0  0  0  0  0  0  0  0
   -0.8906    2.5208    3.1505 C   0  0  0  0  0  0  0  0  0  0  0  0
    1.7476    0.9880    3.1229 C   0  0  0  0  0  0  0  0  0  0  0  0
    1.1861    0.5512    1.9399 C   0  0  0  0  0  0  0  0  0  0  0  0
    2.2110   -0.0870    1.2827 N   0  0  0  0  0  0  0  0  0  0  0  0
    3.3965   -0.0660    1.9881 N   0  0  0  0  0  0  0  0  0  0  0  0
    3.0792    0.5929    3.1254 C   0  0  0  0  0  0  0  0  0  0  0  0
    3.8668    0.8708    4.1879 N   0  0  0  0  0  0  0  0  0  0  0  0
    3.9485    1.7457    6.0275 H   0  0  0  0  0  0  0  0  0  0  0  0
   -1.6283    1.5991    5.6493 H   0  0  0  0  0  0  0  0  0  0  0  0
   -0.1696    2.1125    6.4615 H   0  0  0  0  0  0  0  0  0  0  0  0
   -2.0067    3.8475    6.5711 H   0  0  0  0  0  0  0  0  0  0  0  0
   -0.5816    4.4789    5.7677 H   0  0  0  0  0  0  0  0  0  0  0  0
   -2.0764    4.1887    2.4835 H   0  0  0  0  0  0  0  0  0  0  0  0
   -0.6211    4.6656    3.3336 H   0  0  0  0  0  0  0  0  0  0  0  0
   -0.2796    2.5508    2.2535 H   0  0  0  0  0  0  0  0  0  0  0  0
   -1.6999    1.8011    3.0024 H   0  0  0  0  0  0  0  0  0  0  0  0
    0.2126    0.6029    1.4733 H   0  0  0  0  0  0  0  0  0  0  0  0
    2.0892   -0.5036    0.3654 H   0  0  0  0  0  0  0  0  0  0  0  0
  1 15  2  0
  1  2  1  0
  1 16  1  0
  2  3  2  0
  3  4  1  0
  3 10  1  0
  4  9  1  0
  4  5  1  0
  5  6  1  0
  5 17  1  0
  5 18  1  0
  6  7  1  0
  6 19  1  0
  6 20  1  0
  7  8  1  0
  8  9  1  0
  8 21  1  0
  8 22  1  0
  9 23  1  0
  9 24  1  0
 10 14  1  0
 10 11  2  0
 11 12  1  0
 11 25  1  0
 12 13  1  0
 12 26  1  0
 13 14  2  0
 14 15  1  0
M  END
>  <i_m_ct_stereo_status>  (22) 
1

>  <s_m_source_file>  (22) 
/var/tmp/pbs.5076255.sched01/tmp98udq4tg/0t315e5yz.sdf

>  <i_m_source_file_index>  (22) 
9

>  <i_lp_mmshare_version>  (22) 
48012

>  <i_f3d_flags>  (22) 
0

>  <s_epik_input>  (22) 
W2NIXTFuW25IXWMoYzEyKW5bY0hdbmMyTjNbQ0gyXVtDSDJdT1tDSDJdW0NIMl0z

>  <s_epik_cmdline>  (22) 
J2VwaWtfcHl0aG9uJywgJy1waHQnLCAnMi4wJywgJy1waCcsICc3LjAnLCAnLXRuJywgJzgnLCAnLW1hJywgJzIwMCcsICctaW1hZScsICc8aW5maWxlLm1hZT4nLCAnLW9tYWUnLCAnPG91dGZpbGUubWFlPic=

>  <r_epik_Ionization_Penalty>  (22) 
0.215212

>  <r_epik_Ionization_Penalty_Charging>  (22) 
0.215182

>  <r_epik_Ionization_Penalty_Neutral>  (22) 
3.0327e-05

>  <r_epik_State_Penalty>  (22) 
2.16961

>  <r_epik_Charging_Adjusted_Penalty>  (22) 
2.38479

>  <i_epik_Tot_Q>  (22) 
0

>  <i_epik_Tot_abs_Q>  (22) 
0

>  <s_lp_Force_Field>  (22) 
OPLS3e

>  <r_lp_Energy>  (22) 
34.7782

>  <b_lp_Chiralities_Consistent>  (22) 
1

>  <s_lp_Variant>  (22) 
7:0-2

>  <s_i_glide_gridfile>  (22) 
pfpi4k_grid

>  <i_i_glide_lignum>  (22) 
9

>  <i_i_glide_rotatable_bonds>  (22) 
1

>  <r_i_docking_score>  (22) 
-3.41999

>  <r_i_glide_ligand_efficiency>  (22) 
-0.227999

>  <r_i_glide_ligand_efficiency_sa>  (22) 
-0.562294

>  <r_i_glide_ligand_efficiency_ln>  (22) 
-0.922315

>  <r_i_glide_gscore>  (22) 
-3.41999

>  <r_i_glide_lipo>  (22) 
0

>  <r_i_glide_hbond>  (22) 
-0.134243

>  <r_i_glide_metal>  (22) 
-0

>  <r_i_glide_rewards>  (22) 
-2.03214

>  <r_i_glide_evdw>  (22) 
-14.3131

>  <r_i_glide_ecoul>  (22) 
-5.54523

>  <r_i_glide_erotb>  (22) 
0.391152

>  <r_i_glide_esite>  (22) 
-0.0973183

>  <r_i_glide_emodel>  (22) 
-25.5457

>  <r_i_glide_energy>  (22) 
-19.8584

>  <r_i_glide_einternal>  (22) 
0.240902

>  <r_i_glide_intrahb_reward>  (22) 
-0

>  <i_i_glide_confnum>  (22) 
2

>  <i_i_glide_posenum>  (22) 
36

>  <r_i_glide_eff_state_penalty>  (22) 
0

>  <ligand_id>  (22) 
7

>  <original_smiles>  (22) 
c1nc(N2CCOCC2)c2cn[nH]c2n1

>  <smiles>  (22) 
[H]c1nc(N2C([H])([H])C([H])([H])OC([H])([H])C2([H])[H])c2c([H])n([H])nc2n1

$$$$
7:1:2
     RDKit          3D

 26 28  0  0  1  0  0  0  0  0999 V2000
   -0.5845   -1.5926    5.7656 C   0  0  0  0  0  0  0  0  0  0  0  0
   -0.8418   -0.2839    5.7074 N   0  0  0  0  0  0  0  0  0  0  0  0
   -0.3259    0.4042    4.6571 C   0  0  0  0  0  0  0  0  0  0  0  0
   -0.5846    1.7914    4.5955 N   0  0  0  0  0  0  0  0  0  0  0  0
   -0.7177    2.5111    3.3339 C   0  0  0  0  0  0  0  0  0  0  0  0
   -2.0593    3.2579    3.2939 C   0  0  0  0  0  0  0  0  0  0  0  0
   -2.1818    4.0944    4.4425 O   0  0  0  0  0  0  0  0  0  0  0  0
   -2.1663    3.3411    5.6537 C   0  0  0  0  0  0  0  0  0  0  0  0
   -0.8325    2.5891    5.7928 C   0  0  0  0  0  0  0  0  0  0  0  0
    0.4538   -0.2916    3.7017 C   0  0  0  0  0  0  0  0  0  0  0  0
    1.1298    0.1039    2.5547 C   0  0  0  0  0  0  0  0  0  0  0  0
    1.7092   -1.0532    2.0798 N   0  0  0  0  0  0  0  0  0  0  0  0
    1.4375   -2.1458    2.8715 N   0  0  0  0  0  0  0  0  0  0  0  0
    0.6651   -1.6580    3.8632 C   0  0  0  0  0  0  0  0  0  0  0  0
    0.1217   -2.3135    4.9032 N   0  0  0  0  0  0  0  0  0  0  0  0
   -1.0009   -2.1301    6.6032 H   0  0  0  0  0  0  0  0  0  0  0  0
    0.1131    3.2150    3.2458 H   0  0  0  0  0  0  0  0  0  0  0  0
   -0.6901    1.8484    2.4725 H   0  0  0  0  0  0  0  0  0  0  0  0
   -2.1091    3.8663    2.3926 H   0  0  0  0  0  0  0  0  0  0  0  0
   -2.8886    2.5502    3.2469 H   0  0  0  0  0  0  0  0  0  0  0  0
   -2.3017    4.0236    6.4924 H   0  0  0  0  0  0  0  0  0  0  0  0
   -2.9996    2.6430    5.6735 H   0  0  0  0  0  0  0  0  0  0  0  0
   -0.8247    1.9980    6.7087 H   0  0  0  0  0  0  0  0  0  0  0  0
   -0.0205    3.3104    5.8891 H   0  0  0  0  0  0  0  0  0  0  0  0
    1.2579    1.0366    2.0248 H   0  0  0  0  0  0  0  0  0  0  0  0
    2.2094   -1.1237    1.1989 H   0  0  0  0  0  0  0  0  0  0  0  0
  1 15  2  0
  1  2  1  0
  1 16  1  0
  2  3  2  0
  3  4  1  0
  3 10  1  0
  4  9  1  0
  4  5  1  0
  5  6  1  0
  5 17  1  0
  5 18  1  0
  6  7  1  0
  6 19  1  0
  6 20  1  0
  7  8  1  0
  8  9  1  0
  8 21  1  0
  8 22  1  0
  9 23  1  0
  9 24  1  0
 10 14  1  0
 10 11  2  0
 11 12  1  0
 11 25  1  0
 12 13  1  0
 12 26  1  0
 13 14  2  0
 14 15  1  0
M  END
>  <i_m_ct_stereo_status>  (23) 
1

>  <s_m_source_file>  (23) 
/var/tmp/pbs.5076255.sched01/tmp98udq4tg/0t315e5yz.sdf

>  <i_m_source_file_index>  (23) 
9

>  <i_lp_mmshare_version>  (23) 
48012

>  <i_f3d_flags>  (23) 
0

>  <s_epik_input>  (23) 
W2NIXTFuW25IXWMoYzEyKW5bY0hdbmMyTjNbQ0gyXVtDSDJdT1tDSDJdW0NIMl0z

>  <s_epik_cmdline>  (23) 
J2VwaWtfcHl0aG9uJywgJy1waHQnLCAnMi4wJywgJy1waCcsICc3LjAnLCAnLXRuJywgJzgnLCAnLW1hJywgJzIwMCcsICctaW1hZScsICc8aW5maWxlLm1hZT4nLCAnLW9tYWUnLCAnPG91dGZpbGUubWFlPic=

>  <r_epik_Ionization_Penalty>  (23) 
0.215212

>  <r_epik_Ionization_Penalty_Charging>  (23) 
0.215182

>  <r_epik_Ionization_Penalty_Neutral>  (23) 
3.0327e-05

>  <r_epik_State_Penalty>  (23) 
2.16961

>  <r_epik_Charging_Adjusted_Penalty>  (23) 
2.38479

>  <i_epik_Tot_Q>  (23) 
0

>  <i_epik_Tot_abs_Q>  (23) 
0

>  <s_lp_Force_Field>  (23) 
OPLS3e

>  <r_lp_Energy>  (23) 
34.7782

>  <b_lp_Chiralities_Consistent>  (23) 
1

>  <s_lp_Variant>  (23) 
7:0-2

>  <s_i_glide_gridfile>  (23) 
pfpi4k_grid

>  <i_i_glide_lignum>  (23) 
9

>  <i_i_glide_rotatable_bonds>  (23) 
1

>  <r_i_docking_score>  (23) 
-2.99381

>  <r_i_glide_ligand_efficiency>  (23) 
-0.199587

>  <r_i_glide_ligand_efficiency_sa>  (23) 
-0.492224

>  <r_i_glide_ligand_efficiency_ln>  (23) 
-0.80738

>  <r_i_glide_gscore>  (23) 
-2.99381

>  <r_i_glide_lipo>  (23) 
0

>  <r_i_glide_hbond>  (23) 
-0.0327409

>  <r_i_glide_metal>  (23) 
-0

>  <r_i_glide_rewards>  (23) 
-2.00989

>  <r_i_glide_evdw>  (23) 
-17.1974

>  <r_i_glide_ecoul>  (23) 
-2.45518

>  <r_i_glide_erotb>  (23) 
0.391152

>  <r_i_glide_esite>  (23) 
-0.114185

>  <r_i_glide_emodel>  (23) 
-24.7592

>  <r_i_glide_energy>  (23) 
-19.6525

>  <r_i_glide_einternal>  (23) 
0.0104828

>  <r_i_glide_intrahb_reward>  (23) 
-0

>  <i_i_glide_confnum>  (23) 
1

>  <i_i_glide_posenum>  (23) 
20

>  <r_i_glide_eff_state_penalty>  (23) 
0

>  <ligand_id>  (23) 
7

>  <original_smiles>  (23) 
c1nc(N2CCOCC2)c2cn[nH]c2n1

>  <smiles>  (23) 
[H]c1nc(N2C([H])([H])C([H])([H])OC([H])([H])C2([H])[H])c2c([H])n([H])nc2n1

$$$$
7:2:0
     RDKit          3D

 25 27  0  0  1  0  0  0  0  0999 V2000
    8.3567   -2.7716   -0.5173 C   0  0  0  0  0  0  0  0  0  0  0  0
    7.2119   -2.2681   -1.0056 N   0  0  0  0  0  0  0  0  0  0  0  0
    6.0763   -2.9667   -0.7455 C   0  0  0  0  0  0  0  0  0  0  0  0
    4.8641   -2.4646   -1.2659 N   0  0  0  0  0  0  0  0  0  0  0  0
    3.7648   -3.3359   -1.6578 C   0  0  0  0  0  0  0  0  0  0  0  0
    3.3427   -3.0488   -3.1068 C   0  0  0  0  0  0  0  0  0  0  0  0
    3.0688   -1.6615   -3.2746 O   0  0  0  0  0  0  0  0  0  0  0  0
    4.2068   -0.8551   -2.9973 C   0  0  0  0  0  0  0  0  0  0  0  0
    4.6541   -1.0484   -1.5380 C   0  0  0  0  0  0  0  0  0  0  0  0
    6.1739   -4.1422    0.0298 C   0  0  0  0  0  0  0  0  0  0  0  0
    5.2791   -5.0959    0.5200 C   0  0  0  0  0  0  0  0  0  0  0  0
    5.9134   -6.0430    1.2280 N   0  0  0  0  0  0  0  0  0  0  0  0
    7.2092   -5.6947    1.1977 N   0  0  0  0  0  0  0  0  0  0  0  0
    7.3986   -4.5670    0.4956 C   0  0  0  0  0  0  0  0  0  0  0  0
    8.5159   -3.8757    0.2132 N   0  0  0  0  0  0  0  0  0  0  0  0
    9.2514   -2.2151   -0.7217 H   0  0  0  0  0  0  0  0  0  0  0  0
    4.0581   -4.3807   -1.6104 H   0  0  0  0  0  0  0  0  0  0  0  0
    2.9311   -3.1805   -0.9709 H   0  0  0  0  0  0  0  0  0  0  0  0
    4.1280   -3.3632   -3.7956 H   0  0  0  0  0  0  0  0  0  0  0  0
    2.4531   -3.6294   -3.3510 H   0  0  0  0  0  0  0  0  0  0  0  0
    5.0076   -1.1222   -3.6852 H   0  0  0  0  0  0  0  0  0  0  0  0
    3.9600    0.1903   -3.1791 H   0  0  0  0  0  0  0  0  0  0  0  0
    3.8836   -0.6826   -0.8598 H   0  0  0  0  0  0  0  0  0  0  0  0
    5.5416   -0.4518   -1.3337 H   0  0  0  0  0  0  0  0  0  0  0  0
    4.2113   -5.0645    0.3493 H   0  0  0  0  0  0  0  0  0  0  0  0
  1 15  2  0
  1  2  1  0
  1 16  1  0
  2  3  2  0
  3  4  1  0
  3 10  1  0
  4  9  1  0
  4  5  1  0
  5  6  1  0
  5 17  1  0
  5 18  1  0
  6  7  1  0
  6 19  1  0
  6 20  1  0
  7  8  1  0
  8  9  1  0
  8 21  1  0
  8 22  1  0
  9 23  1  0
  9 24  1  0
 10 14  2  0
 10 11  1  0
 11 12  2  0
 11 25  1  0
 12 13  1  0
 13 14  1  0
 14 15  1  0
M  CHG  1  13  -1
M  END
>  <i_m_ct_stereo_status>  (24) 
1

>  <s_m_source_file>  (24) 
/var/tmp/pbs.5076255.sched01/tmp98udq4tg/0t315e5yz.sdf

>  <i_m_source_file_index>  (24) 
10

>  <i_lp_mmshare_version>  (24) 
48012

>  <i_f3d_flags>  (24) 
0

>  <s_epik_input>  (24) 
W2NIXTFuW25IXWMoYzEyKW5bY0hdbmMyTjNbQ0gyXVtDSDJdT1tDSDJdW0NIMl0z

>  <s_epik_cmdline>  (24) 
J2VwaWtfcHl0aG9uJywgJy1waHQnLCAnMi4wJywgJy1waCcsICc3LjAnLCAnLXRuJywgJzgnLCAnLW1hJywgJzIwMCcsICctaW1hZScsICc8aW5maWxlLm1hZT4nLCAnLW9tYWUnLCAnPG91dGZpbGUubWFlPic=

>  <r_epik_Ionization_Penalty>  (24) 
3.215

>  <r_epik_Ionization_Penalty_Charging>  (24) 
0

>  <r_epik_Ionization_Penalty_Neutral>  (24) 
3.215

>  <r_epik_State_Penalty>  (24) 
2.69168

>  <r_epik_Charging_Adjusted_Penalty>  (24) 
2.69168

>  <i_epik_Tot_Q>  (24) 
-1

>  <i_epik_Tot_abs_Q>  (24) 
1

>  <s_lp_Force_Field>  (24) 
OPLS3e

>  <r_lp_Energy>  (24) 
33.1986

>  <b_lp_Chiralities_Consistent>  (24) 
1

>  <s_lp_Variant>  (24) 
7:0-3

>  <s_i_glide_gridfile>  (24) 
pfpi4k_grid

>  <i_i_glide_lignum>  (24) 
10

>  <i_i_glide_rotatable_bonds>  (24) 
1

>  <r_i_docking_score>  (24) 
-4.095

>  <r_i_glide_ligand_efficiency>  (24) 
-0.273

>  <r_i_glide_ligand_efficiency_sa>  (24) 
-0.673276

>  <r_i_glide_ligand_efficiency_ln>  (24) 
-1.10435

>  <r_i_glide_gscore>  (24) 
-4.095

>  <r_i_glide_lipo>  (24) 
-0.33808

>  <r_i_glide_hbond>  (24) 
-0.16

>  <r_i_glide_metal>  (24) 
-0

>  <r_i_glide_rewards>  (24) 
-2.2128

>  <r_i_glide_evdw>  (24) 
-22.2904

>  <r_i_glide_ecoul>  (24) 
-4.1409

>  <r_i_glide_erotb>  (24) 
0.394385

>  <r_i_glide_esite>  (24) 
-0.0428598

>  <r_i_glide_emodel>  (24) 
-35.1997

>  <r_i_glide_energy>  (24) 
-26.4313

>  <r_i_glide_einternal>  (24) 
0.00078155

>  <r_i_glide_intrahb_reward>  (24) 
-0

>  <i_i_glide_confnum>  (24) 
5

>  <i_i_glide_posenum>  (24) 
3

>  <r_i_glide_eff_state_penalty>  (24) 
0

>  <ligand_id>  (24) 
7

>  <original_smiles>  (24) 
c1nc(N2CCOCC2)c2cn[nH]c2n1

>  <smiles>  (24) 
[H]c1nc(N2C([H])([H])C([H])([H])OC([H])([H])C2([H])[H])c2c([H])n[n-]c2n1

$$$$
7:2:1
     RDKit          3D

 25 27  0  0  1  0  0  0  0  0999 V2000
    4.9073   -4.1696    1.5369 C   0  0  0  0  0  0  0  0  0  0  0  0
    4.4172   -3.7066    0.3836 N   0  0  0  0  0  0  0  0  0  0  0  0
    5.3061   -3.4184   -0.5976 C   0  0  0  0  0  0  0  0  0  0  0  0
    4.7989   -2.9291   -1.8191 N   0  0  0  0  0  0  0  0  0  0  0  0
    5.4465   -3.2065   -3.0910 C   0  0  0  0  0  0  0  0  0  0  0  0
    4.4734   -3.8517   -4.0760 C   0  0  0  0  0  0  0  0  0  0  0  0
    3.3110   -3.0395   -4.2006 O   0  0  0  0  0  0  0  0  0  0  0  0
    2.6179   -2.9002   -2.9586 C   0  0  0  0  0  0  0  0  0  0  0  0
    3.5228   -2.2231   -1.9157 C   0  0  0  0  0  0  0  0  0  0  0  0
    6.6826   -3.6173   -0.3295 C   0  0  0  0  0  0  0  0  0  0  0  0
    7.8769   -3.4295   -1.0283 C   0  0  0  0  0  0  0  0  0  0  0  0
    8.9409   -3.8031   -0.2965 N   0  0  0  0  0  0  0  0  0  0  0  0
    8.4343   -4.2165    0.8738 N   0  0  0  0  0  0  0  0  0  0  0  0
    7.0926   -4.1119    0.8874 C   0  0  0  0  0  0  0  0  0  0  0  0
    6.1896   -4.3909    1.8414 N   0  0  0  0  0  0  0  0  0  0  0  0
    4.1867   -4.3901    2.3078 H   0  0  0  0  0  0  0  0  0  0  0  0
    5.8114   -2.2606   -3.4834 H   0  0  0  0  0  0  0  0  0  0  0  0
    6.2916   -3.8748   -2.9886 H   0  0  0  0  0  0  0  0  0  0  0  0
    4.9609   -3.9601   -5.0428 H   0  0  0  0  0  0  0  0  0  0  0  0
    4.2223   -4.8590   -3.7749 H   0  0  0  0  0  0  0  0  0  0  0  0
    1.7210   -2.3086   -3.1214 H   0  0  0  0  0  0  0  0  0  0  0  0
    2.2809   -3.8661   -2.5936 H   0  0  0  0  0  0  0  0  0  0  0  0
    3.0071   -2.1498   -0.9580 H   0  0  0  0  0  0  0  0  0  0  0  0
    3.7283   -1.2018   -2.2310 H   0  0  0  0  0  0  0  0  0  0  0  0
    7.9256   -3.0460   -2.0401 H   0  0  0  0  0  0  0  0  0  0  0  0
  1 15  2  0
  1  2  1  0
  1 16  1  0
  2  3  2  0
  3  4  1  0
  3 10  1  0
  4  9  1  0
  4  5  1  0
  5  6  1  0
  5 17  1  0
  5 18  1  0
  6  7  1  0
  6 19  1  0
  6 20  1  0
  7  8  1  0
  8  9  1  0
  8 21  1  0
  8 22  1  0
  9 23  1  0
  9 24  1  0
 10 14  2  0
 10 11  1  0
 11 12  2  0
 11 25  1  0
 12 13  1  0
 13 14  1  0
 14 15  1  0
M  CHG  1  13  -1
M  END
>  <i_m_ct_stereo_status>  (25) 
1

>  <s_m_source_file>  (25) 
/var/tmp/pbs.5076255.sched01/tmp98udq4tg/0t315e5yz.sdf

>  <i_m_source_file_index>  (25) 
10

>  <i_lp_mmshare_version>  (25) 
48012

>  <i_f3d_flags>  (25) 
0

>  <s_epik_input>  (25) 
W2NIXTFuW25IXWMoYzEyKW5bY0hdbmMyTjNbQ0gyXVtDSDJdT1tDSDJdW0NIMl0z

>  <s_epik_cmdline>  (25) 
J2VwaWtfcHl0aG9uJywgJy1waHQnLCAnMi4wJywgJy1waCcsICc3LjAnLCAnLXRuJywgJzgnLCAnLW1hJywgJzIwMCcsICctaW1hZScsICc8aW5maWxlLm1hZT4nLCAnLW9tYWUnLCAnPG91dGZpbGUubWFlPic=

>  <r_epik_Ionization_Penalty>  (25) 
3.215

>  <r_epik_Ionization_Penalty_Charging>  (25) 
0

>  <r_epik_Ionization_Penalty_Neutral>  (25) 
3.215

>  <r_epik_State_Penalty>  (25) 
2.69168

>  <r_epik_Charging_Adjusted_Penalty>  (25) 
2.69168

>  <i_epik_Tot_Q>  (25) 
-1

>  <i_epik_Tot_abs_Q>  (25) 
1

>  <s_lp_Force_Field>  (25) 
OPLS3e

>  <r_lp_Energy>  (25) 
33.1986

>  <b_lp_Chiralities_Consistent>  (25) 
1

>  <s_lp_Variant>  (25) 
7:0-3

>  <s_i_glide_gridfile>  (25) 
pfpi4k_grid

>  <i_i_glide_lignum>  (25) 
10

>  <i_i_glide_rotatable_bonds>  (25) 
1

>  <r_i_docking_score>  (25) 
-3.73487

>  <r_i_glide_ligand_efficiency>  (25) 
-0.248991

>  <r_i_glide_ligand_efficiency_sa>  (25) 
-0.614065

>  <r_i_glide_ligand_efficiency_ln>  (25) 
-1.00723

>  <r_i_glide_gscore>  (25) 
-3.73487

>  <r_i_glide_lipo>  (25) 
-0.476695

>  <r_i_glide_hbond>  (25) 
-0.143384

>  <r_i_glide_metal>  (25) 
-0

>  <r_i_glide_rewards>  (25) 
-2.24386

>  <r_i_glide_evdw>  (25) 
-18.931

>  <r_i_glide_ecoul>  (25) 
-1.89417

>  <r_i_glide_erotb>  (25) 
0.394385

>  <r_i_glide_esite>  (25) 
-0.034634

>  <r_i_glide_emodel>  (25) 
-28.7713

>  <r_i_glide_energy>  (25) 
-20.8252

>  <r_i_glide_einternal>  (25) 
0.00248732

>  <r_i_glide_intrahb_reward>  (25) 
-0

>  <i_i_glide_confnum>  (25) 
1

>  <i_i_glide_posenum>  (25) 
31

>  <r_i_glide_eff_state_penalty>  (25) 
0

>  <ligand_id>  (25) 
7

>  <original_smiles>  (25) 
c1nc(N2CCOCC2)c2cn[nH]c2n1

>  <smiles>  (25) 
[H]c1nc(N2C([H])([H])C([H])([H])OC([H])([H])C2([H])[H])c2c([H])n[n-]c2n1

$$$$
7:2:2
     RDKit          3D

 25 27  0  0  1  0  0  0  0  0999 V2000
    4.6093   -5.0112    0.9631 C   0  0  0  0  0  0  0  0  0  0  0  0
    3.8620   -4.2895    0.1180 N   0  0  0  0  0  0  0  0  0  0  0  0
    4.5156   -3.4560   -0.7232 C   0  0  0  0  0  0  0  0  0  0  0  0
    3.7401   -2.6770   -1.6040 N   0  0  0  0  0  0  0  0  0  0  0  0
    4.1064   -1.3248   -2.0003 C   0  0  0  0  0  0  0  0  0  0  0  0
    4.2015   -1.2573   -3.5315 C   0  0  0  0  0  0  0  0  0  0  0  0
    2.9910   -1.7146   -4.1163 O   0  0  0  0  0  0  0  0  0  0  0  0
    2.6925   -3.0667   -3.7741 C   0  0  0  0  0  0  0  0  0  0  0  0
    2.5412   -3.2049   -2.2482 C   0  0  0  0  0  0  0  0  0  0  0  0
    5.9255   -3.4053   -0.6549 C   0  0  0  0  0  0  0  0  0  0  0  0
    6.9294   -2.7363   -1.3475 C   0  0  0  0  0  0  0  0  0  0  0  0
    8.1475   -3.0568   -0.8806 N   0  0  0  0  0  0  0  0  0  0  0  0
    7.9259   -3.9508    0.0976 N   0  0  0  0  0  0  0  0  0  0  0  0
    6.6079   -4.1839    0.2517 C   0  0  0  0  0  0  0  0  0  0  0  0
    5.9400   -5.0025    1.0806 N   0  0  0  0  0  0  0  0  0  0  0  0
    4.0740   -5.6552    1.6371 H   0  0  0  0  0  0  0  0  0  0  0  0
    3.3226   -0.6557   -1.6432 H   0  0  0  0  0  0  0  0  0  0  0  0
    5.0218   -0.9892   -1.5201 H   0  0  0  0  0  0  0  0  0  0  0  0
    4.3889   -0.2341   -3.8504 H   0  0  0  0  0  0  0  0  0  0  0  0
    5.0134   -1.8758   -3.9060 H   0  0  0  0  0  0  0  0  0  0  0  0
    1.7761   -3.3596   -4.2782 H   0  0  0  0  0  0  0  0  0  0  0  0
    3.4771   -3.7244   -4.1445 H   0  0  0  0  0  0  0  0  0  0  0  0
    2.3613   -4.2421   -1.9703 H   0  0  0  0  0  0  0  0  0  0  0  0
    1.6638   -2.6540   -1.9184 H   0  0  0  0  0  0  0  0  0  0  0  0
    6.7262   -2.0636   -2.1671 H   0  0  0  0  0  0  0  0  0  0  0  0
  1 15  2  0
  1  2  1  0
  1 16  1  0
  2  3  2  0
  3  4  1  0
  3 10  1  0
  4  9  1  0
  4  5  1  0
  5  6  1  0
  5 17  1  0
  5 18  1  0
  6  7  1  0
  6 19  1  0
  6 20  1  0
  7  8  1  0
  8  9  1  0
  8 21  1  0
  8 22  1  0
  9 23  1  0
  9 24  1  0
 10 14  2  0
 10 11  1  0
 11 12  2  0
 11 25  1  0
 12 13  1  0
 13 14  1  0
 14 15  1  0
M  CHG  1  13  -1
M  END
>  <i_m_ct_stereo_status>  (26) 
1

>  <s_m_source_file>  (26) 
/var/tmp/pbs.5076255.sched01/tmp98udq4tg/0t315e5yz.sdf

>  <i_m_source_file_index>  (26) 
10

>  <i_lp_mmshare_version>  (26) 
48012

>  <i_f3d_flags>  (26) 
0

>  <s_epik_input>  (26) 
W2NIXTFuW25IXWMoYzEyKW5bY0hdbmMyTjNbQ0gyXVtDSDJdT1tDSDJdW0NIMl0z

>  <s_epik_cmdline>  (26) 
J2VwaWtfcHl0aG9uJywgJy1waHQnLCAnMi4wJywgJy1waCcsICc3LjAnLCAnLXRuJywgJzgnLCAnLW1hJywgJzIwMCcsICctaW1hZScsICc8aW5maWxlLm1hZT4nLCAnLW9tYWUnLCAnPG91dGZpbGUubWFlPic=

>  <r_epik_Ionization_Penalty>  (26) 
3.215

>  <r_epik_Ionization_Penalty_Charging>  (26) 
0

>  <r_epik_Ionization_Penalty_Neutral>  (26) 
3.215

>  <r_epik_State_Penalty>  (26) 
2.69168

>  <r_epik_Charging_Adjusted_Penalty>  (26) 
2.69168

>  <i_epik_Tot_Q>  (26) 
-1

>  <i_epik_Tot_abs_Q>  (26) 
1

>  <s_lp_Force_Field>  (26) 
OPLS3e

>  <r_lp_Energy>  (26) 
33.1986

>  <b_lp_Chiralities_Consistent>  (26) 
1

>  <s_lp_Variant>  (26) 
7:0-3

>  <s_i_glide_gridfile>  (26) 
pfpi4k_grid

>  <i_i_glide_lignum>  (26) 
10

>  <i_i_glide_rotatable_bonds>  (26) 
1

>  <r_i_docking_score>  (26) 
-3.51703

>  <r_i_glide_ligand_efficiency>  (26) 
-0.234469

>  <r_i_glide_ligand_efficiency_sa>  (26) 
-0.57825

>  <r_i_glide_ligand_efficiency_ln>  (26) 
-0.948485

>  <r_i_glide_gscore>  (26) 
-3.51703

>  <r_i_glide_lipo>  (26) 
-0.56539

>  <r_i_glide_hbond>  (26) 
0

>  <r_i_glide_metal>  (26) 
-0

>  <r_i_glide_rewards>  (26) 
-2.22295

>  <r_i_glide_evdw>  (26) 
-22.7066

>  <r_i_glide_ecoul>  (26) 
0.303853

>  <r_i_glide_erotb>  (26) 
0.394385

>  <r_i_glide_esite>  (26) 
-0.0333241

>  <r_i_glide_emodel>  (26) 
-29.6585

>  <r_i_glide_energy>  (26) 
-22.4027

>  <r_i_glide_einternal>  (26) 
0.616559

>  <r_i_glide_intrahb_reward>  (26) 
-0

>  <i_i_glide_confnum>  (26) 
4

>  <i_i_glide_posenum>  (26) 
9

>  <r_i_glide_eff_state_penalty>  (26) 
0

>  <ligand_id>  (26) 
7

>  <original_smiles>  (26) 
c1nc(N2CCOCC2)c2cn[nH]c2n1

>  <smiles>  (26) 
[H]c1nc(N2C([H])([H])C([H])([H])OC([H])([H])C2([H])[H])c2c([H])n[n-]c2n1

$$$$
8:0:0
     RDKit          3D

 39 41  0  0  1  0  0  0  0  0999 V2000
   -6.8866   -4.4151   -4.3356 C   0  0  0  0  0  0  0  0  0  0  0  0
   -7.3521   -4.2249   -5.7414 N   0  0  1  0  0  0  0  0  0  0  0  0
   -7.6605   -5.4467   -6.4451 C   0  0  0  0  0  0  0  0  0  0  0  0
   -8.8073   -4.6648   -7.1267 C   0  0  2  0  0  0  0  0  0  0  0  0
   -8.7292   -3.7248   -5.9199 C   0  0  0  0  0  0  0  0  0  0  0  0
  -10.1262   -5.3898   -7.3745 C   0  0  0  0  0  0  0  0  0  0  0  0
   -9.9721   -6.4607   -8.4804 C   0  0  1  0  0  0  0  0  0  0  0  0
   -8.9829   -7.6036   -8.0533 C   0  0  0  0  0  0  0  0  0  0  0  0
   -8.9102   -8.7056   -9.1069 C   0  0  0  0  0  0  0  0  0  0  0  0
  -10.2964   -9.3163   -9.3623 C   0  0  0  0  0  0  0  0  0  0  0  0
  -11.3354   -8.2466   -9.7582 C   0  0  0  0  0  0  0  0  0  0  0  0
  -11.3776   -7.0865   -8.7451 C   0  0  0  0  0  0  0  0  0  0  0  0
   -9.4689   -5.7084   -9.7428 C   0  0  0  0  0  0  0  0  0  0  0  0
   -8.1885   -4.9268   -9.4145 C   0  0  0  0  0  0  0  0  0  0  0  0
   -8.3439   -4.0073   -8.3214 O   0  0  0  0  0  0  0  0  0  0  0  0
   -7.5967   -4.9929   -3.7448 H   0  0  0  0  0  0  0  0  0  0  0  0
   -6.7082   -3.4791   -3.7860 H   0  0  0  0  0  0  0  0  0  0  0  0
   -5.9497   -4.9816   -4.2790 H   0  0  0  0  0  0  0  0  0  0  0  0
   -6.8006   -5.7263   -7.0759 H   0  0  0  0  0  0  0  0  0  0  0  0
   -7.9962   -6.2569   -5.7769 H   0  0  0  0  0  0  0  0  0  0  0  0
   -9.3965   -3.9684   -5.0847 H   0  0  0  0  0  0  0  0  0  0  0  0
   -8.7760   -2.6599   -6.1742 H   0  0  0  0  0  0  0  0  0  0  0  0
  -10.5252   -5.8334   -6.4618 H   0  0  0  0  0  0  0  0  0  0  0  0
  -10.8738   -4.6472   -7.6284 H   0  0  0  0  0  0  0  0  0  0  0  0
   -7.9518   -7.2739   -7.9077 H   0  0  0  0  0  0  0  0  0  0  0  0
   -9.3507   -8.0299   -7.1197 H   0  0  0  0  0  0  0  0  0  0  0  0
   -8.4895   -8.3307  -10.0436 H   0  0  0  0  0  0  0  0  0  0  0  0
   -8.2398   -9.4792   -8.7487 H   0  0  0  0  0  0  0  0  0  0  0  0
  -10.2320  -10.0988  -10.1256 H   0  0  0  0  0  0  0  0  0  0  0  0
  -10.6322   -9.8164   -8.4505 H   0  0  0  0  0  0  0  0  0  0  0  0
  -11.0897   -7.8463  -10.7423 H   0  0  0  0  0  0  0  0  0  0  0  0
  -12.3264   -8.7004   -9.8507 H   0  0  0  0  0  0  0  0  0  0  0  0
  -11.8133   -7.4466   -7.8118 H   0  0  0  0  0  0  0  0  0  0  0  0
  -12.0993   -6.3462   -9.1008 H   0  0  0  0  0  0  0  0  0  0  0  0
   -9.2991   -6.3841  -10.5878 H   0  0  0  0  0  0  0  0  0  0  0  0
  -10.2722   -5.0737  -10.0646 H   0  0  0  0  0  0  0  0  0  0  0  0
   -7.3960   -5.6551   -9.2050 H   0  0  0  0  0  0  0  0  0  0  0  0
   -7.8646   -4.3541  -10.2758 H   0  0  0  0  0  0  0  0  0  0  0  0
   -6.7319   -3.6584   -6.2815 H   0  0  0  0  0  0  0  0  0  0  0  0
  1  2  1  0
  1 16  1  0
  1 17  1  0
  1 18  1  0
  2  5  1  0
  2  3  1  0
  2 39  1  6
  3  4  1  0
  3 19  1  0
  3 20  1  0
  4 15  1  6
  4  5  1  0
  4  6  1  0
  5 21  1  0
  5 22  1  0
  7  6  1  1
  6 23  1  0
  6 24  1  0
  7 12  1  0
  7  8  1  0
  7 13  1  0
  8  9  1  0
  8 25  1  0
  8 26  1  0
  9 10  1  0
  9 27  1  0
  9 28  1  0
 10 11  1  0
 10 29  1  0
 10 30  1  0
 11 12  1  0
 11 31  1  0
 11 32  1  0
 12 33  1  0
 12 34  1  0
 13 14  1  0
 13 35  1  0
 13 36  1  0
 14 15  1  0
 14 37  1  0
 14 38  1  0
M  CHG  1   2   1
M  END
>  <i_m_ct_stereo_status>  (27) 
1

>  <s_m_source_file>  (27) 
/var/tmp/pbs.5076255.sched01/tmp98udq4tg/0t315e5yz.sdf

>  <i_m_source_file_index>  (27) 
11

>  <i_lp_mmshare_version>  (27) 
48012

>  <i_f3d_flags>  (27) 
0

>  <s_epik_input>  (27) 
W0NIM11OKFtDSDJdMSlbQ0gyXUMxMltDSDJdQzMoW0NIMl1bQ0gyXU8yKVtDSDJdW0NIMl1bQ0gyXVtDSDJdW0NIMl0z

>  <s_epik_cmdline>  (27) 
J2VwaWtfcHl0aG9uJywgJy1waHQnLCAnMi4wJywgJy1waCcsICc3LjAnLCAnLXRuJywgJzgnLCAnLW1hJywgJzIwMCcsICctaW1hZScsICc8aW5maWxlLm1hZT4nLCAnLW9tYWUnLCAnPG91dGZpbGUubWFlPic=

>  <r_epik_Ionization_Penalty>  (27) 
0.00273053

>  <r_epik_Ionization_Penalty_Charging>  (27) 
0.00273053

>  <r_epik_Ionization_Penalty_Neutral>  (27) 
1.31558e-15

>  <r_epik_State_Penalty>  (27) 
0.00190497

>  <r_epik_Charging_Adjusted_Penalty>  (27) 
0.00463551

>  <i_epik_Tot_Q>  (27) 
1

>  <i_epik_Tot_abs_Q>  (27) 
1

>  <s_lp_Force_Field>  (27) 
OPLS3e

>  <r_lp_Energy>  (27) 
40.2587

>  <b_lp_Chiralities_Consistent>  (27) 
1

>  <s_lp_Variant>  (27) 
8:0-1

>  <s_i_glide_gridfile>  (27) 
pfpi4k_grid

>  <i_i_glide_lignum>  (27) 
11

>  <i_i_glide_rotatable_bonds>  (27) 
0

>  <r_i_docking_score>  (27) 
-4.64549

>  <r_i_glide_ligand_efficiency>  (27) 
-0.309699

>  <r_i_glide_ligand_efficiency_sa>  (27) 
-0.763783

>  <r_i_glide_ligand_efficiency_ln>  (27) 
-1.25281

>  <r_i_glide_gscore>  (27) 
-4.64549

>  <r_i_glide_lipo>  (27) 
-1.43403

>  <r_i_glide_hbond>  (27) 
0

>  <r_i_glide_metal>  (27) 
-0

>  <r_i_glide_rewards>  (27) 
-2.45854

>  <r_i_glide_evdw>  (27) 
-11.3246

>  <r_i_glide_ecoul>  (27) 
-1.24455

>  <r_i_glide_erotb>  (27) 
0

>  <r_i_glide_esite>  (27) 
0

>  <r_i_glide_emodel>  (27) 
-14.721

>  <r_i_glide_energy>  (27) 
-12.5692

>  <r_i_glide_einternal>  (27) 
0

>  <r_i_glide_intrahb_reward>  (27) 
-0

>  <i_i_glide_confnum>  (27) 
5

>  <i_i_glide_posenum>  (27) 
1

>  <r_i_glide_eff_state_penalty>  (27) 
0

>  <ligand_id>  (27) 
8

>  <original_smiles>  (27) 
CN1CC2(C1)CC1(CCCCC1)CCO2

>  <smiles>  (27) 
[H]C1([H])OC2(C([H])([H])C3(C1([H])[H])C([H])([H])C([H])([H])C([H])([H])C([H])([H])C3([H])[H])C([H])([H])[N+]([H])(C([H])([H])[H])C2([H])[H]

$$$$
9:0:0
     RDKit          3D

 23 24  0  0  1  0  0  0  0  0999 V2000
    1.7718   -5.0668    6.9076 C   0  0  0  0  0  0  0  0  0  0  0  0
    0.2807   -4.8281    6.6289 C   0  0  0  0  0  0  0  0  0  0  0  0
   -0.3310   -5.9796    5.8157 C   0  0  0  0  0  0  0  0  0  0  0  0
    0.0392   -3.4916    5.9764 C   0  0  0  0  0  0  0  0  0  0  0  0
    0.7222   -2.9015    4.9447 C   0  0  0  0  0  0  0  0  0  0  0  0
    0.1076   -1.6818    4.7133 N   0  0  0  0  0  0  0  0  0  0  0  0
    0.3503   -0.6709    3.8298 C   0  0  0  0  0  0  0  0  0  0  0  0
   -0.4761    0.4289    3.8661 C   0  0  0  0  0  0  0  0  0  0  0  0
   -1.5248    0.4556    4.8122 C   0  0  0  0  0  0  0  0  0  0  0  0
   -1.7778   -0.5207    5.6797 N   0  0  0  0  0  0  0  0  0  0  0  0
   -0.9628   -1.5890    5.6382 C   0  0  0  0  0  0  0  0  0  0  0  0
   -1.0068   -2.6783    6.4011 N   0  0  0  0  0  0  0  0  0  0  0  0
    2.1814   -4.2795    7.5414 H   0  0  0  0  0  0  0  0  0  0  0  0
    2.3483   -5.0842    5.9828 H   0  0  0  0  0  0  0  0  0  0  0  0
    1.9331   -6.0174    7.4183 H   0  0  0  0  0  0  0  0  0  0  0  0
   -0.2206   -4.8346    7.5991 H   0  0  0  0  0  0  0  0  0  0  0  0
   -1.4049   -5.8519    5.6827 H   0  0  0  0  0  0  0  0  0  0  0  0
   -0.1812   -6.9382    6.3149 H   0  0  0  0  0  0  0  0  0  0  0  0
    0.1228   -6.0486    4.8275 H   0  0  0  0  0  0  0  0  0  0  0  0
    1.5785   -3.2143    4.3631 H   0  0  0  0  0  0  0  0  0  0  0  0
    1.1786   -0.7814    3.1330 H   0  0  0  0  0  0  0  0  0  0  0  0
   -0.3290    1.2559    3.1786 H   0  0  0  0  0  0  0  0  0  0  0  0
   -2.1852    1.3149    4.8523 H   0  0  0  0  0  0  0  0  0  0  0  0
  1  2  1  0
  1 13  1  0
  1 14  1  0
  1 15  1  0
  2  3  1  0
  2  4  1  0
  2 16  1  0
  3 17  1  0
  3 18  1  0
  3 19  1  0
  4 12  1  0
  4  5  2  0
  5  6  1  0
  5 20  1  0
  6 11  1  0
  6  7  1  0
  7  8  2  0
  7 21  1  0
  8  9  1  0
  8 22  1  0
  9 10  2  0
  9 23  1  0
 10 11  1  0
 11 12  2  0
M  END
>  <i_m_ct_stereo_status>  (28) 
1

>  <s_m_source_file>  (28) 
/var/tmp/pbs.5076255.sched01/tmp98udq4tg/0t315e5yz.sdf

>  <i_m_source_file_index>  (28) 
12

>  <i_lp_mmshare_version>  (28) 
48012

>  <i_f3d_flags>  (28) 
0

>  <s_epik_input>  (28) 
W0NIM11bQ0hdKFtDSDNdKWMoW2NIXTEpbmMobjEyKW5bY0hdW2NIXVtjSF0y

>  <s_epik_cmdline>  (28) 
J2VwaWtfcHl0aG9uJywgJy1waHQnLCAnMi4wJywgJy1waCcsICc3LjAnLCAnLXRuJywgJzgnLCAnLW1hJywgJzIwMCcsICctaW1hZScsICc8aW5maWxlLm1hZT4nLCAnLW9tYWUnLCAnPG91dGZpbGUubWFlPic=

>  <r_epik_Ionization_Penalty>  (28) 
0.000931829

>  <r_epik_Ionization_Penalty_Charging>  (28) 
0.000931829

>  <r_epik_Ionization_Penalty_Neutral>  (28) 
4.02963e-12

>  <r_epik_State_Penalty>  (28) 
0.000604547

>  <r_epik_Charging_Adjusted_Penalty>  (28) 
0.00153638

>  <i_epik_Tot_Q>  (28) 
0

>  <i_epik_Tot_abs_Q>  (28) 
0

>  <s_lp_Force_Field>  (28) 
OPLS3e

>  <r_lp_Energy>  (28) 
15.0062

>  <b_lp_Chiralities_Consistent>  (28) 
1

>  <s_lp_Variant>  (28) 
9:0-1

>  <s_i_glide_gridfile>  (28) 
pfpi4k_grid

>  <i_i_glide_lignum>  (28) 
12

>  <i_i_glide_rotatable_bonds>  (28) 
1

>  <r_i_docking_score>  (28) 
-3.58266

>  <r_i_glide_ligand_efficiency>  (28) 
-0.298555

>  <r_i_glide_ligand_efficiency_sa>  (28) 
-0.68352

>  <r_i_glide_ligand_efficiency_ln>  (28) 
-1.02805

>  <r_i_glide_gscore>  (28) 
-3.58266

>  <r_i_glide_lipo>  (28) 
-0.00644995

>  <r_i_glide_hbond>  (28) 
-0.0460575

>  <r_i_glide_metal>  (28) 
-0

>  <r_i_glide_rewards>  (28) 
-2.25

>  <r_i_glide_evdw>  (28) 
-11.6756

>  <r_i_glide_ecoul>  (28) 
-4.32374

>  <r_i_glide_erotb>  (28) 
0

>  <r_i_glide_esite>  (28) 
-0.047813

>  <r_i_glide_emodel>  (28) 
-19.8073

>  <r_i_glide_energy>  (28) 
-15.9993

>  <r_i_glide_einternal>  (28) 
1.54157

>  <r_i_glide_intrahb_reward>  (28) 
-0

>  <i_i_glide_confnum>  (28) 
2

>  <i_i_glide_posenum>  (28) 
4

>  <r_i_glide_eff_state_penalty>  (28) 
0

>  <ligand_id>  (28) 
9

>  <original_smiles>  (28) 
CC(C)c1cn2cccnc2n1

>  <smiles>  (28) 
[H]c1nc2nc(C([H])(C([H])([H])[H])C([H])([H])[H])c([H])n2c([H])c1[H]

$$$$
9:0:1
     RDKit          3D

 23 24  0  0  1  0  0  0  0  0999 V2000
   -0.7707   -5.3317    6.4767 C   0  0  0  0  0  0  0  0  0  0  0  0
    0.3280   -4.2897    6.7317 C   0  0  0  0  0  0  0  0  0  0  0  0
    0.4662   -3.9829    8.2315 C   0  0  0  0  0  0  0  0  0  0  0  0
    0.1175   -3.0422    5.9160 C   0  0  0  0  0  0  0  0  0  0  0  0
    0.9066   -2.5313    4.9198 C   0  0  0  0  0  0  0  0  0  0  0  0
    0.2928   -1.3673    4.4873 N   0  0  0  0  0  0  0  0  0  0  0  0
    0.6165   -0.4478    3.5343 C   0  0  0  0  0  0  0  0  0  0  0  0
   -0.2344    0.6195    3.3589 C   0  0  0  0  0  0  0  0  0  0  0  0
   -1.3858    0.7107    4.1738 C   0  0  0  0  0  0  0  0  0  0  0  0
   -1.7162   -0.1786    5.1060 N   0  0  0  0  0  0  0  0  0  0  0  0
   -0.8825   -1.2195    5.2658 C   0  0  0  0  0  0  0  0  0  0  0  0
   -0.9988   -2.2359    6.1178 N   0  0  0  0  0  0  0  0  0  0  0  0
   -0.8233   -5.5974    5.4206 H   0  0  0  0  0  0  0  0  0  0  0  0
   -1.7524   -4.9610    6.7797 H   0  0  0  0  0  0  0  0  0  0  0  0
   -0.5792   -6.2486    7.0339 H   0  0  0  0  0  0  0  0  0  0  0  0
    1.2680   -4.7490    6.4249 H   0  0  0  0  0  0  0  0  0  0  0  0
    1.2861   -3.2885    8.4207 H   0  0  0  0  0  0  0  0  0  0  0  0
    0.6661   -4.8904    8.8028 H   0  0  0  0  0  0  0  0  0  0  0  0
   -0.4463   -3.5387    8.6333 H   0  0  0  0  0  0  0  0  0  0  0  0
    1.8342   -2.8617    4.4764 H   0  0  0  0  0  0  0  0  0  0  0  0
    1.5214   -0.5995    2.9509 H   0  0  0  0  0  0  0  0  0  0  0  0
   -0.0294    1.3696    2.6012 H   0  0  0  0  0  0  0  0  0  0  0  0
   -2.0767    1.5379    4.0372 H   0  0  0  0  0  0  0  0  0  0  0  0
  1  2  1  0
  1 13  1  0
  1 14  1  0
  1 15  1  0
  2  3  1  0
  2  4  1  0
  2 16  1  0
  3 17  1  0
  3 18  1  0
  3 19  1  0
  4 12  1  0
  4  5  2  0
  5  6  1  0
  5 20  1  0
  6 11  1  0
  6  7  1  0
  7  8  2  0
  7 21  1  0
  8  9  1  0
  8 22  1  0
  9 10  2  0
  9 23  1  0
 10 11  1  0
 11 12  2  0
M  END
>  <i_m_ct_stereo_status>  (29) 
1

>  <s_m_source_file>  (29) 
/var/tmp/pbs.5076255.sched01/tmp98udq4tg/0t315e5yz.sdf

>  <i_m_source_file_index>  (29) 
12

>  <i_lp_mmshare_version>  (29) 
48012

>  <i_f3d_flags>  (29) 
0

>  <s_epik_input>  (29) 
W0NIM11bQ0hdKFtDSDNdKWMoW2NIXTEpbmMobjEyKW5bY0hdW2NIXVtjSF0y

>  <s_epik_cmdline>  (29) 
J2VwaWtfcHl0aG9uJywgJy1waHQnLCAnMi4wJywgJy1waCcsICc3LjAnLCAnLXRuJywgJzgnLCAnLW1hJywgJzIwMCcsICctaW1hZScsICc8aW5maWxlLm1hZT4nLCAnLW9tYWUnLCAnPG91dGZpbGUubWFlPic=

>  <r_epik_Ionization_Penalty>  (29) 
0.000931829

>  <r_epik_Ionization_Penalty_Charging>  (29) 
0.000931829

>  <r_epik_Ionization_Penalty_Neutral>  (29) 
4.02963e-12

>  <r_epik_State_Penalty>  (29) 
0.000604547

>  <r_epik_Charging_Adjusted_Penalty>  (29) 
0.00153638

>  <i_epik_Tot_Q>  (29) 
0

>  <i_epik_Tot_abs_Q>  (29) 
0

>  <s_lp_Force_Field>  (29) 
OPLS3e

>  <r_lp_Energy>  (29) 
15.0062

>  <b_lp_Chiralities_Consistent>  (29) 
1

>  <s_lp_Variant>  (29) 
9:0-1

>  <s_i_glide_gridfile>  (29) 
pfpi4k_grid

>  <i_i_glide_lignum>  (29) 
12

>  <i_i_glide_rotatable_bonds>  (29) 
1

>  <r_i_docking_score>  (29) 
-3.56724

>  <r_i_glide_ligand_efficiency>  (29) 
-0.29727

>  <r_i_glide_ligand_efficiency_sa>  (29) 
-0.680578

>  <r_i_glide_ligand_efficiency_ln>  (29) 
-1.02362

>  <r_i_glide_gscore>  (29) 
-3.56724

>  <r_i_glide_lipo>  (29) 
-0.101282

>  <r_i_glide_hbond>  (29) 
0

>  <r_i_glide_metal>  (29) 
-0

>  <r_i_glide_rewards>  (29) 
-2.25

>  <r_i_glide_evdw>  (29) 
-12.5156

>  <r_i_glide_ecoul>  (29) 
-3.64668

>  <r_i_glide_erotb>  (29) 
0

>  <r_i_glide_esite>  (29) 
-0.0431728

>  <r_i_glide_emodel>  (29) 
-20.6953

>  <r_i_glide_energy>  (29) 
-16.1623

>  <r_i_glide_einternal>  (29) 
0.0114324

>  <r_i_glide_intrahb_reward>  (29) 
-0

>  <i_i_glide_confnum>  (29) 
1

>  <i_i_glide_posenum>  (29) 
24

>  <r_i_glide_eff_state_penalty>  (29) 
0

>  <ligand_id>  (29) 
9

>  <original_smiles>  (29) 
CC(C)c1cn2cccnc2n1

>  <smiles>  (29) 
[H]c1nc2nc(C([H])(C([H])([H])[H])C([H])([H])[H])c([H])n2c([H])c1[H]

$$$$
9:0:2
     RDKit          3D

 23 24  0  0  1  0  0  0  0  0999 V2000
   -1.7781   -9.1150    2.2639 C   0  0  0  0  0  0  0  0  0  0  0  0
   -1.1428   -7.7743    2.6583 C   0  0  0  0  0  0  0  0  0  0  0  0
   -0.1312   -7.3062    1.5987 C   0  0  0  0  0  0  0  0  0  0  0  0
   -0.5238   -7.8217    4.0251 C   0  0  0  0  0  0  0  0  0  0  0  0
   -0.1150   -8.9134    4.7434 C   0  0  0  0  0  0  0  0  0  0  0  0
    0.3600   -8.4362    5.9472 N   0  0  0  0  0  0  0  0  0  0  0  0
    0.8745   -9.0639    7.0413 C   0  0  0  0  0  0  0  0  0  0  0  0
    1.2638   -8.2772    8.1000 C   0  0  0  0  0  0  0  0  0  0  0  0
    1.1117   -6.8742    8.0005 C   0  0  0  0  0  0  0  0  0  0  0  0
    0.5945   -6.2548    6.9462 N   0  0  0  0  0  0  0  0  0  0  0  0
    0.2211   -7.0245    5.9085 C   0  0  0  0  0  0  0  0  0  0  0  0
   -0.3241   -6.6494    4.7498 N   0  0  0  0  0  0  0  0  0  0  0  0
   -2.5456   -9.4091    2.9799 H   0  0  0  0  0  0  0  0  0  0  0  0
   -1.0352   -9.9109    2.2149 H   0  0  0  0  0  0  0  0  0  0  0  0
   -2.2499   -9.0591    1.2848 H   0  0  0  0  0  0  0  0  0  0  0  0
   -1.9562   -7.0504    2.6768 H   0  0  0  0  0  0  0  0  0  0  0  0
    0.2745   -6.3253    1.8489 H   0  0  0  0  0  0  0  0  0  0  0  0
   -0.5813   -7.2413    0.6079 H   0  0  0  0  0  0  0  0  0  0  0  0
    0.7080   -7.9989    1.5280 H   0  0  0  0  0  0  0  0  0  0  0  0
   -0.1528   -9.9788    4.5518 H   0  0  0  0  0  0  0  0  0  0  0  0
    0.9624  -10.1503    7.0229 H   0  0  0  0  0  0  0  0  0  0  0  0
    1.6990   -8.7376    8.9789 H   0  0  0  0  0  0  0  0  0  0  0  0
    1.4288   -6.2393    8.8235 H   0  0  0  0  0  0  0  0  0  0  0  0
  1  2  1  0
  1 13  1  0
  1 14  1  0
  1 15  1  0
  2  3  1  0
  2  4  1  0
  2 16  1  0
  3 17  1  0
  3 18  1  0
  3 19  1  0
  4 12  1  0
  4  5  2  0
  5  6  1  0
  5 20  1  0
  6 11  1  0
  6  7  1  0
  7  8  2  0
  7 21  1  0
  8  9  1  0
  8 22  1  0
  9 10  2  0
  9 23  1  0
 10 11  1  0
 11 12  2  0
M  END
>  <i_m_ct_stereo_status>  (30) 
1

>  <s_m_source_file>  (30) 
/var/tmp/pbs.5076255.sched01/tmp98udq4tg/0t315e5yz.sdf

>  <i_m_source_file_index>  (30) 
12

>  <i_lp_mmshare_version>  (30) 
48012

>  <i_f3d_flags>  (30) 
0

>  <s_epik_input>  (30) 
W0NIM11bQ0hdKFtDSDNdKWMoW2NIXTEpbmMobjEyKW5bY0hdW2NIXVtjSF0y

>  <s_epik_cmdline>  (30) 
J2VwaWtfcHl0aG9uJywgJy1waHQnLCAnMi4wJywgJy1waCcsICc3LjAnLCAnLXRuJywgJzgnLCAnLW1hJywgJzIwMCcsICctaW1hZScsICc8aW5maWxlLm1hZT4nLCAnLW9tYWUnLCAnPG91dGZpbGUubWFlPic=

>  <r_epik_Ionization_Penalty>  (30) 
0.000931829

>  <r_epik_Ionization_Penalty_Charging>  (30) 
0.000931829

>  <r_epik_Ionization_Penalty_Neutral>  (30) 
4.02963e-12

>  <r_epik_State_Penalty>  (30) 
0.000604547

>  <r_epik_Charging_Adjusted_Penalty>  (30) 
0.00153638

>  <i_epik_Tot_Q>  (30) 
0

>  <i_epik_Tot_abs_Q>  (30) 
0

>  <s_lp_Force_Field>  (30) 
OPLS3e

>  <r_lp_Energy>  (30) 
15.0062

>  <b_lp_Chiralities_Consistent>  (30) 
1

>  <s_lp_Variant>  (30) 
9:0-1

>  <s_i_glide_gridfile>  (30) 
pfpi4k_grid

>  <i_i_glide_lignum>  (30) 
12

>  <i_i_glide_rotatable_bonds>  (30) 
1

>  <r_i_docking_score>  (30) 
-3.55579

>  <r_i_glide_ligand_efficiency>  (30) 
-0.296316

>  <r_i_glide_ligand_efficiency_sa>  (30) 
-0.678394

>  <r_i_glide_ligand_efficiency_ln>  (30) 
-1.02034

>  <r_i_glide_gscore>  (30) 
-3.55579

>  <r_i_glide_lipo>  (30) 
-0.269261

>  <r_i_glide_hbond>  (30) 
0

>  <r_i_glide_metal>  (30) 
-0

>  <r_i_glide_rewards>  (30) 
-2.25

>  <r_i_glide_evdw>  (30) 
-15.4547

>  <r_i_glide_ecoul>  (30) 
-1.42739

>  <r_i_glide_erotb>  (30) 
0

>  <r_i_glide_esite>  (30) 
-0.0496867

>  <r_i_glide_emodel>  (30) 
-20.6936

>  <r_i_glide_energy>  (30) 
-16.8821

>  <r_i_glide_einternal>  (30) 
1.42032

>  <r_i_glide_intrahb_reward>  (30) 
-0

>  <i_i_glide_confnum>  (30) 
1

>  <i_i_glide_posenum>  (30) 
40

>  <r_i_glide_eff_state_penalty>  (30) 
0

>  <ligand_id>  (30) 
9

>  <original_smiles>  (30) 
CC(C)c1cn2cccnc2n1

>  <smiles>  (30) 
[H]c1nc2nc(C([H])(C([H])([H])[H])C([H])([H])[H])c([H])n2c([H])c1[H]

$$$$
11:0:0
     RDKit          3D

 51 54  0  0  1  0  0  0  0  0999 V2000
    3.9412   -1.5101    0.0887 C   0  0  0  0  0  0  0  0  0  0  0  0
    3.0542   -2.2532    1.1005 C   0  0  0  0  0  0  0  0  0  0  0  0
    3.7287   -3.3561    1.6896 O   0  0  0  0  0  0  0  0  0  0  0  0
    3.8374   -4.4813    0.8928 C   0  0  2  0  0  0  0  0  0  0  0  0
    2.6360   -5.1602    0.7704 O   0  0  0  0  0  0  0  0  0  0  0  0
    2.2311   -6.0336    1.8230 C   0  0  1  0  0  0  0  0  0  0  0  0
    0.9107   -6.4716    1.5874 O   0  0  0  0  0  0  0  0  0  0  0  0
    0.4007   -7.0593    2.8775 O   0  0  0  0  0  0  0  0  0  0  0  0
    0.7229   -8.4200    2.8592 C   0  0  2  0  0  0  0  0  0  0  0  0
   -0.5934   -9.2452    2.7735 C   0  0  0  0  0  0  0  0  0  0  0  0
    1.4316   -8.7464    4.1605 C   0  0  0  0  0  0  0  0  0  0  0  0
    2.4925   -7.6944    4.5492 C   0  0  0  0  0  0  0  0  0  0  0  0
    3.6571   -7.4549    3.5630 C   0  0  1  0  0  0  0  0  0  0  0  0
    4.8286   -8.4607    3.7642 C   0  0  1  0  0  0  0  0  0  0  0  0
    4.5374   -9.9608    3.5288 C   0  0  0  0  0  0  0  0  0  0  0  0
    6.0464   -7.9977    2.9568 C   0  0  0  0  0  0  0  0  0  0  0  0
    5.7009   -7.8607    1.4764 C   0  0  0  0  0  0  0  0  0  0  0  0
    4.5469   -6.8624    1.2325 C   0  0  2  0  0  0  0  0  0  0  0  0
    4.9526   -5.3866    1.4705 C   0  0  1  0  0  0  0  0  0  0  0  0
    6.2754   -4.9512    0.7970 C   0  0  0  0  0  0  0  0  0  0  0  0
    3.2643   -7.2202    2.0620 C   0  0  2  0  0  0  0  0  0  0  0  0
    2.8924   -8.5233    1.6303 O   0  0  0  0  0  0  0  0  0  0  0  0
    1.4028   -8.8044    1.6446 O   0  0  0  0  0  0  0  0  0  0  0  0
    3.4193   -0.6446   -0.3079 H   0  0  0  0  0  0  0  0  0  0  0  0
    4.2294   -2.1309   -0.7587 H   0  0  0  0  0  0  0  0  0  0  0  0
    4.8505   -1.1545    0.5655 H   0  0  0  0  0  0  0  0  0  0  0  0
    2.7988   -1.5715    1.9103 H   0  0  0  0  0  0  0  0  0  0  0  0
    2.1164   -2.5796    0.6655 H   0  0  0  0  0  0  0  0  0  0  0  0
    4.0935   -4.2120   -0.1250 H   0  0  0  0  0  0  0  0  0  0  0  0
    2.1445   -5.4072    2.7127 H   0  0  0  0  0  0  0  0  0  0  0  0
   -1.0910   -9.0794    1.8298 H   0  0  0  0  0  0  0  0  0  0  0  0
   -1.2767   -8.9971    3.5899 H   0  0  0  0  0  0  0  0  0  0  0  0
   -0.3480  -10.2942    2.8454 H   0  0  0  0  0  0  0  0  0  0  0  0
    0.6783   -8.7039    4.9582 H   0  0  0  0  0  0  0  0  0  0  0  0
    1.8031   -9.7641    4.1548 H   0  0  0  0  0  0  0  0  0  0  0  0
    1.9897   -6.7441    4.7083 H   0  0  0  0  0  0  0  0  0  0  0  0
    2.8949   -7.9611    5.5182 H   0  0  0  0  0  0  0  0  0  0  0  0
    4.0595   -6.5057    3.9160 H   0  0  0  0  0  0  0  0  0  0  0  0
    5.1162   -8.3902    4.8120 H   0  0  0  0  0  0  0  0  0  0  0  0
    4.1454  -10.1836    2.5337 H   0  0  0  0  0  0  0  0  0  0  0  0
    3.8385  -10.3530    4.2609 H   0  0  0  0  0  0  0  0  0  0  0  0
    5.4466  -10.5475    3.6318 H   0  0  0  0  0  0  0  0  0  0  0  0
    6.4010   -7.0429    3.3495 H   0  0  0  0  0  0  0  0  0  0  0  0
    6.8691   -8.7007    3.0828 H   0  0  0  0  0  0  0  0  0  0  0  0
    6.5942   -7.5747    0.9156 H   0  0  0  0  0  0  0  0  0  0  0  0
    5.4137   -8.8369    1.0789 H   0  0  0  0  0  0  0  0  0  0  0  0
    4.2985   -6.9464    0.1745 H   0  0  0  0  0  0  0  0  0  0  0  0
    5.0536   -5.1860    2.5362 H   0  0  0  0  0  0  0  0  0  0  0  0
    6.2841   -5.1903   -0.2675 H   0  0  0  0  0  0  0  0  0  0  0  0
    7.1508   -5.4286    1.2491 H   0  0  0  0  0  0  0  0  0  0  0  0
    6.4367   -3.8754    0.8848 H   0  0  0  0  0  0  0  0  0  0  0  0
  1  2  1  0
  1 24  1  0
  1 25  1  0
  1 26  1  0
  2  3  1  0
  2 27  1  0
  2 28  1  0
  3  4  1  0
  4 19  1  0
  4  5  1  0
  4 29  1  6
  5  6  1  0
  6 21  1  0
  6  7  1  0
  6 30  1  1
  7  8  1  0
  8  9  1  0
  9 23  1  0
  9 10  1  1
  9 11  1  0
 10 31  1  0
 10 32  1  0
 10 33  1  0
 11 12  1  0
 11 34  1  0
 11 35  1  0
 12 13  1  0
 12 36  1  0
 12 37  1  0
 13 21  1  0
 13 14  1  0
 13 38  1  1
 14 15  1  0
 14 16  1  0
 14 39  1  1
 15 40  1  0
 15 41  1  0
 15 42  1  0
 16 17  1  0
 16 43  1  0
 16 44  1  0
 17 18  1  0
 17 45  1  0
 17 46  1  0
 18 19  1  0
 18 21  1  0
 18 47  1  6
 19 20  1  0
 19 48  1  1
 20 49  1  0
 20 50  1  0
 20 51  1  0
 21 22  1  6
 22 23  1  0
M  END
>  <i_m_ct_stereo_status>  (31) 
1

>  <s_m_source_file>  (31) 
/var/tmp/pbs.5076255.sched01/tmp98udq4tg/0t315e5yz.sdf

>  <i_m_source_file_index>  (31) 
14

>  <i_lp_mmshare_version>  (31) 
48012

>  <i_f3d_flags>  (31) 
0

>  <s_epik_input>  (31) 
W0NIM11bQ0gyXU9bQ0BIXShPW0NAQEhdMVtDQF0yMzQpW0NASF0oW0NIM10pW0NASF0zW0NIMl1bQ0gyXVtDQEhdKFtDSDNdKVtDQEBIXTJbQ0gyXVtDSDJdW0NAXShPTzEpKFtDSDNdKU9PNA==

>  <s_epik_cmdline>  (31) 
J2VwaWtfcHl0aG9uJywgJy1waHQnLCAnMi4wJywgJy1waCcsICc3LjAnLCAnLXRuJywgJzgnLCAnLW1hJywgJzIwMCcsICctaW1hZScsICc8aW5maWxlLm1hZT4nLCAnLW9tYWUnLCAnPG91dGZpbGUubWFlPic=

>  <r_lp_tautomer_probability>  (31) 
1

>  <r_epik_Ionization_Penalty>  (31) 
7.34095e-13

>  <r_epik_Ionization_Penalty_Charging>  (31) 
0

>  <r_epik_Ionization_Penalty_Neutral>  (31) 
7.34095e-13

>  <r_epik_State_Penalty>  (31) 
-0

>  <r_epik_Charging_Adjusted_Penalty>  (31) 
0

>  <i_epik_Tot_Q>  (31) 
0

>  <i_epik_Tot_abs_Q>  (31) 
0

>  <s_epik_Chemistry_Notes>  (31) 
This compound contains an acetal/aminal-like group ( X-CH(R)-Y where X, Y are N, S, or O) that may be acid/base labile, releasing an aldehyde.

>  <s_lp_Force_Field>  (31) 
OPLS3e

>  <r_lp_Energy>  (31) 
30.4133

>  <b_lp_Chiralities_Consistent>  (31) 
1

>  <s_lp_Variant>  (31) 
11:0-1

>  <s_i_glide_gridfile>  (31) 
pfpi4k_grid

>  <i_i_glide_lignum>  (31) 
14

>  <i_i_glide_rotatable_bonds>  (31) 
2

>  <r_i_docking_score>  (31) 
-2.54873

>  <r_i_glide_ligand_efficiency>  (31) 
-0.110814

>  <r_i_glide_ligand_efficiency_sa>  (31) 
-0.315142

>  <r_i_glide_ligand_efficiency_ln>  (31) 
-0.616307

>  <r_i_glide_gscore>  (31) 
-2.54873

>  <r_i_glide_lipo>  (31) 
-0.367974

>  <r_i_glide_hbond>  (31) 
-0.0759413

>  <r_i_glide_metal>  (31) 
-0

>  <r_i_glide_rewards>  (31) 
-1.18522

>  <r_i_glide_evdw>  (31) 
-16.8354

>  <r_i_glide_ecoul>  (31) 
-1.37782

>  <r_i_glide_erotb>  (31) 
0.174145

>  <r_i_glide_esite>  (31) 
-0.0453032

>  <r_i_glide_emodel>  (31) 
-19.9742

>  <r_i_glide_energy>  (31) 
-18.2132

>  <r_i_glide_einternal>  (31) 
1.01479

>  <r_i_glide_intrahb_reward>  (31) 
-0

>  <i_i_glide_confnum>  (31) 
3

>  <i_i_glide_posenum>  (31) 
23

>  <r_i_glide_eff_state_penalty>  (31) 
0

>  <ligand_id>  (31) 
11

>  <original_smiles>  (31) 
CCOC1OC2OOC3(C)CCC4C(C)CCC(C1C)C24OO3

>  <smiles>  (31) 
[H]C([H])([H])C([H])([H])OC1([H])OC2([H])OOC3(C([H])([H])[H])OOC24C([H])(C([H])([H])C([H])([H])C([H])(C([H])([H])[H])C4([H])C([H])([H])C3([H])[H])C1([H])C([H])([H])[H]

$$$$
11:0:1
     RDKit          3D

 51 54  0  0  1  0  0  0  0  0999 V2000
    2.6012   -9.4148    1.4197 C   0  0  0  0  0  0  0  0  0  0  0  0
    2.0194   -8.0800    1.8976 C   0  0  0  0  0  0  0  0  0  0  0  0
    2.5738   -7.0250    1.1141 O   0  0  0  0  0  0  0  0  0  0  0  0
    2.7615   -5.8131    1.7629 C   0  0  2  0  0  0  0  0  0  0  0  0
    2.2216   -4.7377    1.0457 O   0  0  0  0  0  0  0  0  0  0  0  0
    2.9495   -4.2235   -0.0688 C   0  0  1  0  0  0  0  0  0  0  0  0
    2.1554   -3.3100   -0.8026 O   0  0  0  0  0  0  0  0  0  0  0  0
    2.8209   -3.0598   -2.1014 O   0  0  0  0  0  0  0  0  0  0  0  0
    3.6438   -1.9300   -1.9235 C   0  0  2  0  0  0  0  0  0  0  0  0
    3.1581   -0.7528   -2.7502 C   0  0  0  0  0  0  0  0  0  0  0  0
    4.9905   -2.3580   -2.4534 C   0  0  0  0  0  0  0  0  0  0  0  0
    5.4118   -3.7707   -2.0594 C   0  0  0  0  0  0  0  0  0  0  0  0
    5.5487   -4.0516   -0.5524 C   0  0  1  0  0  0  0  0  0  0  0  0
    6.9572   -3.6885    0.0013 C   0  0  1  0  0  0  0  0  0  0  0  0
    7.3803   -2.2093   -0.0609 C   0  0  0  0  0  0  0  0  0  0  0  0
    7.1117   -4.2603    1.4057 C   0  0  0  0  0  0  0  0  0  0  0  0
    6.0036   -3.7387    2.3288 C   0  0  0  0  0  0  0  0  0  0  0  0
    4.5983   -4.0972    1.8268 C   0  0  2  0  0  0  0  0  0  0  0  0
    4.2693   -5.6087    1.9952 C   0  0  1  0  0  0  0  0  0  0  0  0
    4.6158   -6.2131    3.3752 C   0  0  0  0  0  0  0  0  0  0  0  0
    4.3496   -3.6134    0.3596 C   0  0  2  0  0  0  0  0  0  0  0  0
    4.4724   -2.1736    0.4149 O   0  0  0  0  0  0  0  0  0  0  0  0
    3.5641   -1.4354   -0.5457 O   0  0  0  0  0  0  0  0  0  0  0  0
    2.2288  -10.2436    2.0216 H   0  0  0  0  0  0  0  0  0  0  0  0
    3.6896   -9.4186    1.4863 H   0  0  0  0  0  0  0  0  0  0  0  0
    2.3379   -9.6245    0.3883 H   0  0  0  0  0  0  0  0  0  0  0  0
    0.9341   -8.0595    1.8007 H   0  0  0  0  0  0  0  0  0  0  0  0
    2.2396   -7.9924    2.9614 H   0  0  0  0  0  0  0  0  0  0  0  0
    2.1945   -5.7749    2.6935 H   0  0  0  0  0  0  0  0  0  0  0  0
    3.1267   -5.0716   -0.7097 H   0  0  0  0  0  0  0  0  0  0  0  0
    2.2270   -0.3346   -2.3741 H   0  0  0  0  0  0  0  0  0  0  0  0
    2.9975   -0.9995   -3.8070 H   0  0  0  0  0  0  0  0  0  0  0  0
    3.8818    0.0662   -2.7298 H   0  0  0  0  0  0  0  0  0  0  0  0
    4.8984   -2.4104   -3.5538 H   0  0  0  0  0  0  0  0  0  0  0  0
    5.7627   -1.6065   -2.2735 H   0  0  0  0  0  0  0  0  0  0  0  0
    4.7018   -4.4978   -2.4738 H   0  0  0  0  0  0  0  0  0  0  0  0
    6.3402   -3.9778   -2.5707 H   0  0  0  0  0  0  0  0  0  0  0  0
    5.5422   -5.1392   -0.5232 H   0  0  0  0  0  0  0  0  0  0  0  0
    7.6900   -4.2126   -0.6064 H   0  0  0  0  0  0  0  0  0  0  0  0
    6.6817   -1.5361    0.4320 H   0  0  0  0  0  0  0  0  0  0  0  0
    7.5009   -1.8912   -1.0905 H   0  0  0  0  0  0  0  0  0  0  0  0
    8.3473   -2.0582    0.4198 H   0  0  0  0  0  0  0  0  0  0  0  0
    7.0879   -5.3488    1.3768 H   0  0  0  0  0  0  0  0  0  0  0  0
    8.1031   -4.0053    1.7789 H   0  0  0  0  0  0  0  0  0  0  0  0
    6.1476   -4.1212    3.3320 H   0  0  0  0  0  0  0  0  0  0  0  0
    6.0823   -2.6574    2.4141 H   0  0  0  0  0  0  0  0  0  0  0  0
    3.8984   -3.5636    2.4761 H   0  0  0  0  0  0  0  0  0  0  0  0
    4.8070   -6.1890    1.2391 H   0  0  0  0  0  0  0  0  0  0  0  0
    4.1592   -5.6484    4.1889 H   0  0  0  0  0  0  0  0  0  0  0  0
    5.6860   -6.2512    3.5501 H   0  0  0  0  0  0  0  0  0  0  0  0
    4.2788   -7.2435    3.4666 H   0  0  0  0  0  0  0  0  0  0  0  0
  1  2  1  0
  1 24  1  0
  1 25  1  0
  1 26  1  0
  2  3  1  0
  2 27  1  0
  2 28  1  0
  3  4  1  0
  4 19  1  0
  4  5  1  0
  4 29  1  1
  5  6  1  0
  6 21  1  0
  6  7  1  0
  6 30  1  6
  7  8  1  0
  8  9  1  0
  9 23  1  0
  9 10  1  6
  9 11  1  0
 10 31  1  0
 10 32  1  0
 10 33  1  0
 11 12  1  0
 11 34  1  0
 11 35  1  0
 12 13  1  0
 12 36  1  0
 12 37  1  0
 13 21  1  0
 13 14  1  0
 13 38  1  6
 14 15  1  0
 14 16  1  0
 14 39  1  6
 15 40  1  0
 15 41  1  0
 15 42  1  0
 16 17  1  0
 16 43  1  0
 16 44  1  0
 17 18  1  0
 17 45  1  0
 17 46  1  0
 18 19  1  0
 18 21  1  0
 18 47  1  1
 19 20  1  0
 19 48  1  6
 20 49  1  0
 20 50  1  0
 20 51  1  0
 21 22  1  1
 22 23  1  0
M  END
>  <i_m_ct_stereo_status>  (32) 
1

>  <s_m_source_file>  (32) 
/var/tmp/pbs.5076255.sched01/tmp98udq4tg/0t315e5yz.sdf

>  <i_m_source_file_index>  (32) 
14

>  <i_lp_mmshare_version>  (32) 
48012

>  <i_f3d_flags>  (32) 
0

>  <s_epik_input>  (32) 
W0NIM11bQ0gyXU9bQ0BIXShPW0NAQEhdMVtDQF0yMzQpW0NASF0oW0NIM10pW0NASF0zW0NIMl1bQ0gyXVtDQEhdKFtDSDNdKVtDQEBIXTJbQ0gyXVtDSDJdW0NAXShPTzEpKFtDSDNdKU9PNA==

>  <s_epik_cmdline>  (32) 
J2VwaWtfcHl0aG9uJywgJy1waHQnLCAnMi4wJywgJy1waCcsICc3LjAnLCAnLXRuJywgJzgnLCAnLW1hJywgJzIwMCcsICctaW1hZScsICc8aW5maWxlLm1hZT4nLCAnLW9tYWUnLCAnPG91dGZpbGUubWFlPic=

>  <r_lp_tautomer_probability>  (32) 
1

>  <r_epik_Ionization_Penalty>  (32) 
7.34095e-13

>  <r_epik_Ionization_Penalty_Charging>  (32) 
0

>  <r_epik_Ionization_Penalty_Neutral>  (32) 
7.34095e-13

>  <r_epik_State_Penalty>  (32) 
-0

>  <r_epik_Charging_Adjusted_Penalty>  (32) 
0

>  <i_epik_Tot_Q>  (32) 
0

>  <i_epik_Tot_abs_Q>  (32) 
0

>  <s_epik_Chemistry_Notes>  (32) 
This compound contains an acetal/aminal-like group ( X-CH(R)-Y where X, Y are N, S, or O) that may be acid/base labile, releasing an aldehyde.

>  <s_lp_Force_Field>  (32) 
OPLS3e

>  <r_lp_Energy>  (32) 
30.4133

>  <b_lp_Chiralities_Consistent>  (32) 
1

>  <s_lp_Variant>  (32) 
11:0-1

>  <s_i_glide_gridfile>  (32) 
pfpi4k_grid

>  <i_i_glide_lignum>  (32) 
14

>  <i_i_glide_rotatable_bonds>  (32) 
2

>  <r_i_docking_score>  (32) 
-2.49861

>  <r_i_glide_ligand_efficiency>  (32) 
-0.108635

>  <r_i_glide_ligand_efficiency_sa>  (32) 
-0.308944

>  <r_i_glide_ligand_efficiency_ln>  (32) 
-0.604187

>  <r_i_glide_gscore>  (32) 
-2.49861

>  <r_i_glide_lipo>  (32) 
-0.551333

>  <r_i_glide_hbond>  (32) 
-0.0273686

>  <r_i_glide_metal>  (32) 
-0

>  <r_i_glide_rewards>  (32) 
-1.17

>  <r_i_glide_evdw>  (32) 
-18.5878

>  <r_i_glide_ecoul>  (32) 
0.627773

>  <r_i_glide_erotb>  (32) 
0.174145

>  <r_i_glide_esite>  (32) 
-0.088836

>  <r_i_glide_emodel>  (32) 
-17.9024

>  <r_i_glide_energy>  (32) 
-17.96

>  <r_i_glide_einternal>  (32) 
4.14716

>  <r_i_glide_intrahb_reward>  (32) 
-0

>  <i_i_glide_confnum>  (32) 
2

>  <i_i_glide_posenum>  (32) 
17

>  <r_i_glide_eff_state_penalty>  (32) 
0

>  <ligand_id>  (32) 
11

>  <original_smiles>  (32) 
CCOC1OC2OOC3(C)CCC4C(C)CCC(C1C)C24OO3

>  <smiles>  (32) 
[H]C([H])([H])C([H])([H])OC1([H])OC2([H])OOC3(C([H])([H])[H])OOC24C([H])(C([H])([H])C([H])([H])C([H])(C([H])([H])[H])C4([H])C([H])([H])C3([H])[H])C1([H])C([H])([H])[H]

$$$$
11:0:2
     RDKit          3D

 51 54  0  0  1  0  0  0  0  0999 V2000
    0.1102   -6.9441    1.2459 C   0  0  0  0  0  0  0  0  0  0  0  0
    1.4128   -7.6411    1.6684 C   0  0  0  0  0  0  0  0  0  0  0  0
    2.5740   -6.9422    1.2409 O   0  0  0  0  0  0  0  0  0  0  0  0
    2.7721   -5.6848    1.7886 C   0  0  2  0  0  0  0  0  0  0  0  0
    2.2232   -4.6627    1.0061 O   0  0  0  0  0  0  0  0  0  0  0  0
    2.9611   -4.1889   -0.1196 C   0  0  1  0  0  0  0  0  0  0  0  0
    2.1571   -3.3037   -0.8894 O   0  0  0  0  0  0  0  0  0  0  0  0
    2.8084   -3.0914   -2.2029 O   0  0  0  0  0  0  0  0  0  0  0  0
    3.6564   -1.9861   -2.0855 C   0  0  2  0  0  0  0  0  0  0  0  0
    3.1666   -0.8349   -2.9699 C   0  0  0  0  0  0  0  0  0  0  0  0
    4.9975   -2.4531   -2.5903 C   0  0  0  0  0  0  0  0  0  0  0  0
    5.4122   -3.8483   -2.1204 C   0  0  0  0  0  0  0  0  0  0  0  0
    5.5558   -4.0565   -0.6049 C   0  0  1  0  0  0  0  0  0  0  0  0
    6.9656   -3.6750   -0.0682 C   0  0  1  0  0  0  0  0  0  0  0  0
    7.3988   -2.2031   -0.2049 C   0  0  0  0  0  0  0  0  0  0  0  0
    7.1159   -4.1723    1.3635 C   0  0  0  0  0  0  0  0  0  0  0  0
    6.0133   -3.5950    2.2597 C   0  0  0  0  0  0  0  0  0  0  0  0
    4.6060   -3.9745    1.7731 C   0  0  2  0  0  0  0  0  0  0  0  0
    4.2732   -5.4719    2.0150 C   0  0  1  0  0  0  0  0  0  0  0  0
    4.5939   -6.0202    3.4250 C   0  0  0  0  0  0  0  0  0  0  0  0
    4.3542   -3.5633    0.2862 C   0  0  2  0  0  0  0  0  0  0  0  0
    4.4815   -2.1301    0.2712 O   0  0  0  0  0  0  0  0  0  0  0  0
    3.5973   -1.4175   -0.7392 O   0  0  0  0  0  0  0  0  0  0  0  0
   -0.7553   -7.5186    1.5701 H   0  0  0  0  0  0  0  0  0  0  0  0
    0.0565   -6.8415    0.1627 H   0  0  0  0  0  0  0  0  0  0  0  0
    0.0281   -5.9559    1.6886 H   0  0  0  0  0  0  0  0  0  0  0  0
    1.4488   -7.7843    2.7490 H   0  0  0  0  0  0  0  0  0  0  0  0
    1.4480   -8.6382    1.2318 H   0  0  0  0  0  0  0  0  0  0  0  0
    2.2459   -5.6056    2.7478 H   0  0  0  0  0  0  0  0  0  0  0  0
    3.1292   -5.0619   -0.7289 H   0  0  0  0  0  0  0  0  0  0  0  0
    2.2345   -0.4104   -2.6191 H   0  0  0  0  0  0  0  0  0  0  0  0
    3.0201   -1.1491   -4.0162 H   0  0  0  0  0  0  0  0  0  0  0  0
    3.8991   -0.0190   -2.9846 H   0  0  0  0  0  0  0  0  0  0  0  0
    4.9094   -2.5627   -3.6885 H   0  0  0  0  0  0  0  0  0  0  0  0
    5.7796   -1.7071   -2.4415 H   0  0  0  0  0  0  0  0  0  0  0  0
    4.6968   -4.5880   -2.4969 H   0  0  0  0  0  0  0  0  0  0  0  0
    6.3367   -4.0908   -2.6244 H   0  0  0  0  0  0  0  0  0  0  0  0
    5.5425   -5.1406   -0.5176 H   0  0  0  0  0  0  0  0  0  0  0  0
    7.6962   -4.2358   -0.6488 H   0  0  0  0  0  0  0  0  0  0  0  0
    6.7034   -1.5017    0.2548 H   0  0  0  0  0  0  0  0  0  0  0  0
    7.5197   -1.9404   -1.2490 H   0  0  0  0  0  0  0  0  0  0  0  0
    8.3671   -2.0332    0.2670 H   0  0  0  0  0  0  0  0  0  0  0  0
    7.0866   -5.2625    1.3932 H   0  0  0  0  0  0  0  0  0  0  0  0
    8.1092   -3.8963    1.7185 H   0  0  0  0  0  0  0  0  0  0  0  0
    6.1494   -3.9301    3.2818 H   0  0  0  0  0  0  0  0  0  0  0  0
    6.1005   -2.5115    2.2930 H   0  0  0  0  0  0  0  0  0  0  0  0
    3.9089   -3.4056    2.4008 H   0  0  0  0  0  0  0  0  0  0  0  0
    4.8107   -6.0967    1.2899 H   0  0  0  0  0  0  0  0  0  0  0  0
    4.1494   -5.4046    4.2072 H   0  0  0  0  0  0  0  0  0  0  0  0
    5.6618   -6.0777    3.6102 H   0  0  0  0  0  0  0  0  0  0  0  0
    4.2058   -7.0307    3.5510 H   0  0  0  0  0  0  0  0  0  0  0  0
  1  2  1  0
  1 24  1  0
  1 25  1  0
  1 26  1  0
  2  3  1  0
  2 27  1  0
  2 28  1  0
  3  4  1  0
  4 19  1  0
  4  5  1  0
  4 29  1  1
  5  6  1  0
  6 21  1  0
  6  7  1  0
  6 30  1  6
  7  8  1  0
  8  9  1  0
  9 23  1  0
  9 10  1  6
  9 11  1  0
 10 31  1  0
 10 32  1  0
 10 33  1  0
 11 12  1  0
 11 34  1  0
 11 35  1  0
 12 13  1  0
 12 36  1  0
 12 37  1  0
 13 21  1  0
 13 14  1  0
 13 38  1  6
 14 15  1  0
 14 16  1  0
 14 39  1  6
 15 40  1  0
 15 41  1  0
 15 42  1  0
 16 17  1  0
 16 43  1  0
 16 44  1  0
 17 18  1  0
 17 45  1  0
 17 46  1  0
 18 19  1  0
 18 21  1  0
 18 47  1  1
 19 20  1  0
 19 48  1  6
 20 49  1  0
 20 50  1  0
 20 51  1  0
 21 22  1  1
 22 23  1  0
M  END
>  <i_m_ct_stereo_status>  (33) 
1

>  <s_m_source_file>  (33) 
/var/tmp/pbs.5076255.sched01/tmp98udq4tg/0t315e5yz.sdf

>  <i_m_source_file_index>  (33) 
14

>  <i_lp_mmshare_version>  (33) 
48012

>  <i_f3d_flags>  (33) 
0

>  <s_epik_input>  (33) 
W0NIM11bQ0gyXU9bQ0BIXShPW0NAQEhdMVtDQF0yMzQpW0NASF0oW0NIM10pW0NASF0zW0NIMl1bQ0gyXVtDQEhdKFtDSDNdKVtDQEBIXTJbQ0gyXVtDSDJdW0NAXShPTzEpKFtDSDNdKU9PNA==

>  <s_epik_cmdline>  (33) 
J2VwaWtfcHl0aG9uJywgJy1waHQnLCAnMi4wJywgJy1waCcsICc3LjAnLCAnLXRuJywgJzgnLCAnLW1hJywgJzIwMCcsICctaW1hZScsICc8aW5maWxlLm1hZT4nLCAnLW9tYWUnLCAnPG91dGZpbGUubWFlPic=

>  <r_lp_tautomer_probability>  (33) 
1

>  <r_epik_Ionization_Penalty>  (33) 
7.34095e-13

>  <r_epik_Ionization_Penalty_Charging>  (33) 
0

>  <r_epik_Ionization_Penalty_Neutral>  (33) 
7.34095e-13

>  <r_epik_State_Penalty>  (33) 
-0

>  <r_epik_Charging_Adjusted_Penalty>  (33) 
0

>  <i_epik_Tot_Q>  (33) 
0

>  <i_epik_Tot_abs_Q>  (33) 
0

>  <s_epik_Chemistry_Notes>  (33) 
This compound contains an acetal/aminal-like group ( X-CH(R)-Y where X, Y are N, S, or O) that may be acid/base labile, releasing an aldehyde.

>  <s_lp_Force_Field>  (33) 
OPLS3e

>  <r_lp_Energy>  (33) 
30.4133

>  <b_lp_Chiralities_Consistent>  (33) 
1

>  <s_lp_Variant>  (33) 
11:0-1

>  <s_i_glide_gridfile>  (33) 
pfpi4k_grid

>  <i_i_glide_lignum>  (33) 
14

>  <i_i_glide_rotatable_bonds>  (33) 
2

>  <r_i_docking_score>  (33) 
-2.4291

>  <r_i_glide_ligand_efficiency>  (33) 
-0.105613

>  <r_i_glide_ligand_efficiency_sa>  (33) 
-0.300349

>  <r_i_glide_ligand_efficiency_ln>  (33) 
-0.587377

>  <r_i_glide_gscore>  (33) 
-2.4291

>  <r_i_glide_lipo>  (33) 
-0.562191

>  <r_i_glide_hbond>  (33) 
-0.0209575

>  <r_i_glide_metal>  (33) 
-0

>  <r_i_glide_rewards>  (33) 
-1.17

>  <r_i_glide_evdw>  (33) 
-19.5375

>  <r_i_glide_ecoul>  (33) 
1.37663

>  <r_i_glide_erotb>  (33) 
0.174145

>  <r_i_glide_esite>  (33) 
-0.0797182

>  <r_i_glide_emodel>  (33) 
-19.1284

>  <r_i_glide_energy>  (33) 
-18.1608

>  <r_i_glide_einternal>  (33) 
2.36648

>  <r_i_glide_intrahb_reward>  (33) 
-0

>  <i_i_glide_confnum>  (33) 
3

>  <i_i_glide_posenum>  (33) 
37

>  <r_i_glide_eff_state_penalty>  (33) 
0

>  <ligand_id>  (33) 
11

>  <original_smiles>  (33) 
CCOC1OC2OOC3(C)CCC4C(C)CCC(C1C)C24OO3

>  <smiles>  (33) 
[H]C([H])([H])C([H])([H])OC1([H])OC2([H])OOC3(C([H])([H])[H])OOC24C([H])(C([H])([H])C([H])([H])C([H])(C([H])([H])[H])C4([H])C([H])([H])C3([H])[H])C1([H])C([H])([H])[H]

$$$$
12:0:0
     RDKit          3D

 58 62  0  0  1  0  0  0  0  0999 V2000
    3.3384   -0.7112   -3.6974 C   0  0  0  0  0  0  0  0  0  0  0  0
    3.4761   -2.2109   -3.3678 C   0  0  2  0  0  0  0  0  0  0  0  0
    2.8648   -2.6660   -2.0594 C   0  0  0  0  0  0  0  0  0  0  0  0
    3.9114   -2.4091   -0.9199 C   0  0  2  0  0  0  0  0  0  0  0  0
    5.2594   -2.1973   -1.6573 C   0  0  1  0  0  0  0  0  0  0  0  0
    6.6018   -2.7818   -1.1030 C   0  0  1  0  0  0  0  0  0  0  0  0
    7.6587   -2.2591   -1.8637 O   0  0  0  0  0  0  0  0  0  0  0  0
    6.9223   -2.4372    0.3637 C   0  0  0  0  0  0  0  0  0  0  0  0
    6.0696   -3.2505    1.3279 C   0  0  0  0  0  0  0  0  0  0  0  0
    6.4535   -4.3532    1.9418 C   0  0  0  0  0  0  0  0  0  0  0  0
    5.3496   -5.0150    2.7313 C   0  0  2  0  0  0  0  0  0  0  0  0
    5.8030   -5.5482    4.0942 C   0  0  0  0  0  0  0  0  0  0  0  0
    4.9006   -6.1532    2.0034 O   0  0  0  0  0  0  0  0  0  0  0  0
    3.8749   -5.9698    1.0425 C   0  0  2  0  0  0  0  0  0  0  0  0
    4.0492   -4.8478   -0.0214 C   0  0  0  0  0  0  0  0  0  0  0  0
    3.8062   -3.3598    0.3222 C   0  0  1  0  0  0  0  0  0  0  0  0
    4.6037   -2.9172    1.5692 C   0  0  2  0  0  0  0  0  0  0  0  0
    4.4015   -1.4272    1.9287 C   0  0  0  0  0  0  0  0  0  0  0  0
    4.3592   -3.8229    2.8334 C   0  0  1  0  0  0  0  0  0  0  0  0
    2.9037   -4.1999    3.2554 C   0  0  1  0  0  0  0  0  0  0  0  0
    1.9233   -3.2429    2.9317 O   0  0  0  0  0  0  0  0  0  0  0  0
    2.5315   -5.5241    3.0256 O   0  0  0  0  0  0  0  0  0  0  0  0
    2.4978   -6.0191    1.7241 C   0  0  1  0  0  0  0  0  0  0  0  0
    1.4702   -5.4943    0.9159 O   0  0  0  0  0  0  0  0  0  0  0  0
    4.9163   -2.5349   -3.1402 C   0  0  1  0  0  0  0  0  0  0  0  0
    5.1395   -3.9643   -3.5281 C   0  0  0  0  0  0  0  0  0  0  0  0
    3.7330   -0.0633   -2.9040 H   0  0  0  0  0  0  0  0  0  0  0  0
    2.3068   -0.4631   -3.8527 H   0  0  0  0  0  0  0  0  0  0  0  0
    3.8622   -0.4547   -4.6279 H   0  0  0  0  0  0  0  0  0  0  0  0
    3.0735   -2.7929   -4.1941 H   0  0  0  0  0  0  0  0  0  0  0  0
    1.9634   -2.0993   -2.0076 H   0  0  0  0  0  0  0  0  0  0  0  0
    2.5821   -3.7206   -2.1468 H   0  0  0  0  0  0  0  0  0  0  0  0
    3.6469   -1.4155   -0.5683 H   0  0  0  0  0  0  0  0  0  0  0  0
    5.4250   -1.1206   -1.6455 H   0  0  0  0  0  0  0  0  0  0  0  0
    6.6511   -3.8664   -1.2102 H   0  0  0  0  0  0  0  0  0  0  0  0
    7.7977   -2.7784   -2.6407 H   0  0  0  0  0  0  0  0  0  0  0  0
    7.9608   -2.6955    0.5691 H   0  0  0  0  0  0  0  0  0  0  0  0
    6.8394   -1.3694    0.5505 H   0  0  0  0  0  0  0  0  0  0  0  0
    7.4527   -4.7771    1.9030 H   0  0  0  0  0  0  0  0  0  0  0  0
    6.2020   -4.7774    4.7442 H   0  0  0  0  0  0  0  0  0  0  0  0
    6.5521   -6.3344    3.9732 H   0  0  0  0  0  0  0  0  0  0  0  0
    4.9489   -6.0064    4.5985 H   0  0  0  0  0  0  0  0  0  0  0  0
    3.9039   -6.8844    0.4481 H   0  0  0  0  0  0  0  0  0  0  0  0
    5.0126   -5.0019   -0.5127 H   0  0  0  0  0  0  0  0  0  0  0  0
    3.3149   -5.0463   -0.7684 H   0  0  0  0  0  0  0  0  0  0  0  0
    2.7537   -3.2733    0.5718 H   0  0  0  0  0  0  0  0  0  0  0  0
    3.3415   -1.1912    2.0447 H   0  0  0  0  0  0  0  0  0  0  0  0
    4.7844   -0.7446    1.1689 H   0  0  0  0  0  0  0  0  0  0  0  0
    4.8997   -1.1579    2.8607 H   0  0  0  0  0  0  0  0  0  0  0  0
    4.7363   -3.2276    3.6596 H   0  0  0  0  0  0  0  0  0  0  0  0
    2.9067   -4.1952    4.3519 H   0  0  0  0  0  0  0  0  0  0  0  0
    1.9852   -3.0348    2.0145 H   0  0  0  0  0  0  0  0  0  0  0  0
    2.2229   -7.0618    1.8826 H   0  0  0  0  0  0  0  0  0  0  0  0
    1.8565   -4.8289    0.3666 H   0  0  0  0  0  0  0  0  0  0  0  0
    5.3919   -1.8878   -3.8482 H   0  0  0  0  0  0  0  0  0  0  0  0
    4.6251   -4.7016   -2.9035 H   0  0  0  0  0  0  0  0  0  0  0  0
    6.2052   -4.0996   -3.3819 H   0  0  0  0  0  0  0  0  0  0  0  0
    4.9312   -4.1416   -4.5887 H   0  0  0  0  0  0  0  0  0  0  0  0
  1  2  1  0
  1 27  1  0
  1 28  1  0
  1 29  1  0
  2 25  1  0
  2  3  1  0
  2 30  1  6
  3  4  1  0
  3 31  1  0
  3 32  1  0
  4 16  1  0
  4  5  1  0
  4 33  1  1
  5  6  1  0
  5 25  1  0
  5 34  1  6
  6  7  1  0
  6  8  1  0
  6 35  1  1
  7 36  1  0
  8  9  1  0
  8 37  1  0
  8 38  1  0
  9 17  1  0
  9 10  2  0
 10 11  1  0
 10 39  1  0
 11 19  1  0
 11 12  1  1
 11 13  1  0
 12 40  1  0
 12 41  1  0
 12 42  1  0
 13 14  1  0
 14 23  1  0
 14 15  1  0
 14 43  1  6
 15 16  1  0
 15 44  1  0
 15 45  1  0
 16 17  1  0
 16 46  1  1
 17 18  1  1
 17 19  1  0
 18 47  1  0
 18 48  1  0
 18 49  1  0
 19 20  1  0
 19 50  1  1
 20 21  1  0
 20 22  1  0
 20 51  1  1
 21 52  1  0
 22 23  1  0
 23 24  1  0
 23 53  1  1
 24 54  1  0
 25 26  1  0
 25 55  1  6
 26 56  1  0
 26 57  1  0
 26 58  1  0
M  END
>  <i_m_ct_stereo_status>  (34) 
1

>  <s_m_source_file>  (34) 
/var/tmp/pbs.5076255.sched01/tmp98udq4tg/0t315e5yz.sdf

>  <i_m_source_file_index>  (34) 
15

>  <i_lp_mmshare_version>  (34) 
48012

>  <i_f3d_flags>  (34) 
0

>  <s_epik_input>  (34) 
W09IXVtDQEhdMU9bQ0BASF0oW09IXSlbQ0BIXShPMilbQ0gyXVtDQEBIXTNbQ0BIXShbQ0gyXVtDQEBIXShbQ0gzXSlbQ0BASF00W0NIM10pW0NASF00W0NAQEhdKFtPSF0pW0NIMl1DKD1bQ0hdNSlbQ0BdMyhbQ0gzXSlbQ0BASF0xW0NAQF0yNVtDSDNd

>  <s_epik_cmdline>  (34) 
J2VwaWtfcHl0aG9uJywgJy1waHQnLCAnMi4wJywgJy1waCcsICc3LjAnLCAnLXRuJywgJzgnLCAnLW1hJywgJzIwMCcsICctaW1hZScsICc8aW5maWxlLm1hZT4nLCAnLW9tYWUnLCAnPG91dGZpbGUubWFlPic=

>  <r_lp_tautomer_probability>  (34) 
1

>  <r_epik_Ionization_Penalty>  (34) 
1.07547e-06

>  <r_epik_Ionization_Penalty_Charging>  (34) 
0

>  <r_epik_Ionization_Penalty_Neutral>  (34) 
1.07547e-06

>  <r_epik_State_Penalty>  (34) 
-0

>  <r_epik_Charging_Adjusted_Penalty>  (34) 
0

>  <i_epik_Tot_Q>  (34) 
0

>  <i_epik_Tot_abs_Q>  (34) 
0

>  <s_epik_Chemistry_Notes>  (34) 
This compound contains an acetal/aminal-like group ( X-CH(R)-Y where X, Y are N, S, or O) that may be acid/base labile, releasing an aldehyde.

>  <s_lp_Force_Field>  (34) 
OPLS3e

>  <r_lp_Energy>  (34) 
38.836

>  <b_lp_Chiralities_Consistent>  (34) 
1

>  <s_lp_Variant>  (34) 
12:0-1

>  <s_i_glide_gridfile>  (34) 
pfpi4k_grid

>  <i_i_glide_lignum>  (34) 
15

>  <i_i_glide_rotatable_bonds>  (34) 
3

>  <r_i_docking_score>  (34) 
-4.67144

>  <r_i_glide_ligand_efficiency>  (34) 
-0.179671

>  <r_i_glide_ligand_efficiency_sa>  (34) 
-0.532274

>  <r_i_glide_ligand_efficiency_ln>  (34) 
-1.09707

>  <r_i_glide_gscore>  (34) 
-4.67144

>  <r_i_glide_lipo>  (34) 
-0.899321

>  <r_i_glide_hbond>  (34) 
-0.48

>  <r_i_glide_metal>  (34) 
-0

>  <r_i_glide_rewards>  (34) 
-0.924029

>  <r_i_glide_evdw>  (34) 
-16.9624

>  <r_i_glide_ecoul>  (34) 
-10.0497

>  <r_i_glide_erotb>  (34) 
0

>  <r_i_glide_esite>  (34) 
-0.0125194

>  <r_i_glide_emodel>  (34) 
-31.7397

>  <r_i_glide_energy>  (34) 
-27.0121

>  <r_i_glide_einternal>  (34) 
1.84984

>  <r_i_glide_intrahb_reward>  (34) 
-0

>  <i_i_glide_confnum>  (34) 
1

>  <i_i_glide_posenum>  (34) 
1

>  <r_i_glide_eff_state_penalty>  (34) 
0

>  <ligand_id>  (34) 
12

>  <original_smiles>  (34) 
CC1CC2C(C(O)CC3=CC4(C)OC5CC2C3(C)C4C(O)OC5O)C1C

>  <smiles>  (34) 
[H]OC1([H])OC([H])(O[H])C2([H])C3(C([H])([H])[H])OC1([H])C([H])([H])C1([H])C4([H])C([H])([H])C([H])(C([H])([H])[H])C([H])(C([H])([H])[H])C4([H])C([H])(O[H])C([H])([H])C(=C3[H])C21C([H])([H])[H]

$$$$
12:0:1
     RDKit          3D

 58 62  0  0  1  0  0  0  0  0999 V2000
    3.2460   -0.6854   -3.8379 C   0  0  0  0  0  0  0  0  0  0  0  0
    3.3764   -2.1856   -3.4908 C   0  0  2  0  0  0  0  0  0  0  0  0
    2.7862   -2.6575   -2.1621 C   0  0  0  0  0  0  0  0  0  0  0  0
    3.8433   -2.3914   -1.0412 C   0  0  2  0  0  0  0  0  0  0  0  0
    5.1716   -2.1999   -1.7983 C   0  0  1  0  0  0  0  0  0  0  0  0
    6.4963   -2.8018   -1.2409 C   0  0  1  0  0  0  0  0  0  0  0  0
    7.5988   -2.2678   -1.9177 O   0  0  0  0  0  0  0  0  0  0  0  0
    6.8611   -2.4377    0.1985 C   0  0  0  0  0  0  0  0  0  0  0  0
    6.0320   -3.2242    1.1702 C   0  0  0  0  0  0  0  0  0  0  0  0
    6.4414   -4.3433    1.7845 C   0  0  0  0  0  0  0  0  0  0  0  0
    5.3455   -5.0019    2.5795 C   0  0  2  0  0  0  0  0  0  0  0  0
    5.8148   -5.5367    3.9330 C   0  0  0  0  0  0  0  0  0  0  0  0
    4.8846   -6.1362    1.8559 O   0  0  0  0  0  0  0  0  0  0  0  0
    3.8359   -5.9482    0.9118 C   0  0  2  0  0  0  0  0  0  0  0  0
    4.0041   -4.8193   -0.1452 C   0  0  0  0  0  0  0  0  0  0  0  0
    3.7577   -3.3369    0.2091 C   0  0  1  0  0  0  0  0  0  0  0  0
    4.5805   -2.8991    1.4376 C   0  0  2  0  0  0  0  0  0  0  0  0
    4.3825   -1.4008    1.7905 C   0  0  0  0  0  0  0  0  0  0  0  0
    4.3579   -3.8064    2.6901 C   0  0  1  0  0  0  0  0  0  0  0  0
    2.9109   -4.1721    3.1435 C   0  0  1  0  0  0  0  0  0  0  0  0
    1.9422   -3.2072    2.8001 O   0  0  0  0  0  0  0  0  0  0  0  0
    2.5128   -5.4977    2.9125 O   0  0  0  0  0  0  0  0  0  0  0  0
    2.4774   -6.0088    1.6109 C   0  0  1  0  0  0  0  0  0  0  0  0
    1.4547   -5.4737    0.8108 O   0  0  0  0  0  0  0  0  0  0  0  0
    4.8252   -2.5143   -3.2706 C   0  0  1  0  0  0  0  0  0  0  0  0
    5.0552   -3.9522   -3.6883 C   0  0  0  0  0  0  0  0  0  0  0  0
    3.6512   -0.0486   -3.0405 H   0  0  0  0  0  0  0  0  0  0  0  0
    2.2131   -0.4211   -4.0051 H   0  0  0  0  0  0  0  0  0  0  0  0
    3.7839   -0.4614   -4.7727 H   0  0  0  0  0  0  0  0  0  0  0  0
    2.9299   -2.7813   -4.2999 H   0  0  0  0  0  0  0  0  0  0  0  0
    1.8711   -2.1100   -2.0185 H   0  0  0  0  0  0  0  0  0  0  0  0
    2.4599   -3.6967   -2.2486 H   0  0  0  0  0  0  0  0  0  0  0  0
    3.5878   -1.3929   -0.6909 H   0  0  0  0  0  0  0  0  0  0  0  0
    5.3374   -1.1221   -1.8013 H   0  0  0  0  0  0  0  0  0  0  0  0
    6.5586   -3.8699   -1.3802 H   0  0  0  0  0  0  0  0  0  0  0  0
    7.6886   -2.6903   -2.7702 H   0  0  0  0  0  0  0  0  0  0  0  0
    7.9069   -2.6977    0.3728 H   0  0  0  0  0  0  0  0  0  0  0  0
    6.7900   -1.3604    0.3673 H   0  0  0  0  0  0  0  0  0  0  0  0
    7.4298   -4.7579    1.7115 H   0  0  0  0  0  0  0  0  0  0  0  0
    6.2279   -4.7572    4.5782 H   0  0  0  0  0  0  0  0  0  0  0  0
    6.5543   -6.3216    3.7991 H   0  0  0  0  0  0  0  0  0  0  0  0
    4.9672   -5.9841    4.4474 H   0  0  0  0  0  0  0  0  0  0  0  0
    3.8643   -6.8563    0.3175 H   0  0  0  0  0  0  0  0  0  0  0  0
    4.9429   -4.9741   -0.6663 H   0  0  0  0  0  0  0  0  0  0  0  0
    3.2555   -4.9859   -0.8832 H   0  0  0  0  0  0  0  0  0  0  0  0
    2.7077   -3.2444    0.4777 H   0  0  0  0  0  0  0  0  0  0  0  0
    3.3316   -1.1596    1.9115 H   0  0  0  0  0  0  0  0  0  0  0  0
    4.7617   -0.7267    1.0154 H   0  0  0  0  0  0  0  0  0  0  0  0
    4.9056   -1.1353    2.7100 H   0  0  0  0  0  0  0  0  0  0  0  0
    4.7479   -3.2114    3.5108 H   0  0  0  0  0  0  0  0  0  0  0  0
    2.9228   -4.1550    4.2315 H   0  0  0  0  0  0  0  0  0  0  0  0
    2.3223   -2.3561    2.9188 H   0  0  0  0  0  0  0  0  0  0  0  0
    2.2210   -7.0495    1.7982 H   0  0  0  0  0  0  0  0  0  0  0  0
    1.8525   -4.7258    0.3778 H   0  0  0  0  0  0  0  0  0  0  0  0
    5.4090   -1.8574   -3.8899 H   0  0  0  0  0  0  0  0  0  0  0  0
    4.5837   -4.6928   -3.0473 H   0  0  0  0  0  0  0  0  0  0  0  0
    6.1049   -4.0808   -3.5316 H   0  0  0  0  0  0  0  0  0  0  0  0
    4.8062   -4.1552   -4.7298 H   0  0  0  0  0  0  0  0  0  0  0  0
  1  2  1  0
  1 27  1  0
  1 28  1  0
  1 29  1  0
  2 25  1  0
  2  3  1  0
  2 30  1  6
  3  4  1  0
  3 31  1  0
  3 32  1  0
  4 16  1  0
  4  5  1  0
  4 33  1  1
  5  6  1  0
  5 25  1  0
  5 34  1  6
  6  7  1  0
  6  8  1  0
  6 35  1  1
  7 36  1  0
  8  9  1  0
  8 37  1  0
  8 38  1  0
  9 17  1  0
  9 10  2  0
 10 11  1  0
 10 39  1  0
 11 19  1  0
 11 12  1  1
 11 13  1  0
 12 40  1  0
 12 41  1  0
 12 42  1  0
 13 14  1  0
 14 23  1  0
 14 15  1  0
 14 43  1  6
 15 16  1  0
 15 44  1  0
 15 45  1  0
 16 17  1  0
 16 46  1  1
 17 18  1  1
 17 19  1  0
 18 47  1  0
 18 48  1  0
 18 49  1  0
 19 20  1  0
 19 50  1  1
 20 21  1  0
 20 22  1  0
 20 51  1  1
 21 52  1  0
 22 23  1  0
 23 24  1  0
 23 53  1  1
 24 54  1  0
 25 26  1  0
 25 55  1  6
 26 56  1  0
 26 57  1  0
 26 58  1  0
M  END
>  <i_m_ct_stereo_status>  (35) 
1

>  <s_m_source_file>  (35) 
/var/tmp/pbs.5076255.sched01/tmp98udq4tg/0t315e5yz.sdf

>  <i_m_source_file_index>  (35) 
15

>  <i_lp_mmshare_version>  (35) 
48012

>  <i_f3d_flags>  (35) 
0

>  <s_epik_input>  (35) 
W09IXVtDQEhdMU9bQ0BASF0oW09IXSlbQ0BIXShPMilbQ0gyXVtDQEBIXTNbQ0BIXShbQ0gyXVtDQEBIXShbQ0gzXSlbQ0BASF00W0NIM10pW0NASF00W0NAQEhdKFtPSF0pW0NIMl1DKD1bQ0hdNSlbQ0BdMyhbQ0gzXSlbQ0BASF0xW0NAQF0yNVtDSDNd

>  <s_epik_cmdline>  (35) 
J2VwaWtfcHl0aG9uJywgJy1waHQnLCAnMi4wJywgJy1waCcsICc3LjAnLCAnLXRuJywgJzgnLCAnLW1hJywgJzIwMCcsICctaW1hZScsICc8aW5maWxlLm1hZT4nLCAnLW9tYWUnLCAnPG91dGZpbGUubWFlPic=

>  <r_lp_tautomer_probability>  (35) 
1

>  <r_epik_Ionization_Penalty>  (35) 
1.07547e-06

>  <r_epik_Ionization_Penalty_Charging>  (35) 
0

>  <r_epik_Ionization_Penalty_Neutral>  (35) 
1.07547e-06

>  <r_epik_State_Penalty>  (35) 
-0

>  <r_epik_Charging_Adjusted_Penalty>  (35) 
0

>  <i_epik_Tot_Q>  (35) 
0

>  <i_epik_Tot_abs_Q>  (35) 
0

>  <s_epik_Chemistry_Notes>  (35) 
This compound contains an acetal/aminal-like group ( X-CH(R)-Y where X, Y are N, S, or O) that may be acid/base labile, releasing an aldehyde.

>  <s_lp_Force_Field>  (35) 
OPLS3e

>  <r_lp_Energy>  (35) 
38.836

>  <b_lp_Chiralities_Consistent>  (35) 
1

>  <s_lp_Variant>  (35) 
12:0-1

>  <s_i_glide_gridfile>  (35) 
pfpi4k_grid

>  <i_i_glide_lignum>  (35) 
15

>  <i_i_glide_rotatable_bonds>  (35) 
3

>  <r_i_docking_score>  (35) 
-4.56577

>  <r_i_glide_ligand_efficiency>  (35) 
-0.175606

>  <r_i_glide_ligand_efficiency_sa>  (35) 
-0.520233

>  <r_i_glide_ligand_efficiency_ln>  (35) 
-1.07226

>  <r_i_glide_gscore>  (35) 
-4.56577

>  <r_i_glide_lipo>  (35) 
-0.872881

>  <r_i_glide_hbond>  (35) 
-0.48

>  <r_i_glide_metal>  (35) 
-0

>  <r_i_glide_rewards>  (35) 
-0.924029

>  <r_i_glide_evdw>  (35) 
-16.6564

>  <r_i_glide_ecoul>  (35) 
-9.61157

>  <r_i_glide_erotb>  (35) 
0

>  <r_i_glide_esite>  (35) 
-0.0143004

>  <r_i_glide_emodel>  (35) 
-30.8119

>  <r_i_glide_energy>  (35) 
-26.268

>  <r_i_glide_einternal>  (35) 
3.73255

>  <r_i_glide_intrahb_reward>  (35) 
-0

>  <i_i_glide_confnum>  (35) 
2

>  <i_i_glide_posenum>  (35) 
5

>  <r_i_glide_eff_state_penalty>  (35) 
0

>  <ligand_id>  (35) 
12

>  <original_smiles>  (35) 
CC1CC2C(C(O)CC3=CC4(C)OC5CC2C3(C)C4C(O)OC5O)C1C

>  <smiles>  (35) 
[H]OC1([H])OC([H])(O[H])C2([H])C3(C([H])([H])[H])OC1([H])C([H])([H])C1([H])C4([H])C([H])([H])C([H])(C([H])([H])[H])C([H])(C([H])([H])[H])C4([H])C([H])(O[H])C([H])([H])C(=C3[H])C21C([H])([H])[H]

$$$$
12:0:2
     RDKit          3D

 58 62  0  0  1  0  0  0  0  0999 V2000
    3.0610   -1.8313   -2.9627 C   0  0  0  0  0  0  0  0  0  0  0  0
    3.9683   -2.8267   -2.2239 C   0  0  2  0  0  0  0  0  0  0  0  0
    3.2196   -3.6189   -1.1480 C   0  0  0  0  0  0  0  0  0  0  0  0
    3.3688   -2.8599    0.1805 C   0  0  2  0  0  0  0  0  0  0  0  0
    4.4796   -1.8005   -0.0690 C   0  0  1  0  0  0  0  0  0  0  0  0
    5.4940   -1.4274    1.0443 C   0  0  1  0  0  0  0  0  0  0  0  0
    6.2096   -0.3096    0.5507 O   0  0  0  0  0  0  0  0  0  0  0  0
    4.8772   -1.0466    2.4075 C   0  0  0  0  0  0  0  0  0  0  0  0
    4.3797   -2.2685    3.1623 C   0  0  0  0  0  0  0  0  0  0  0  0
    5.0294   -2.8834    4.1532 C   0  0  0  0  0  0  0  0  0  0  0  0
    4.3830   -4.1642    4.5840 C   0  0  2  0  0  0  0  0  0  0  0  0
    4.4614   -4.3774    6.1003 C   0  0  0  0  0  0  0  0  0  0  0  0
    5.0853   -5.2465    3.9821 O   0  0  0  0  0  0  0  0  0  0  0  0
    4.6684   -5.7439    2.7100 C   0  0  2  0  0  0  0  0  0  0  0  0
    4.5786   -4.7415    1.5315 C   0  0  0  0  0  0  0  0  0  0  0  0
    3.3665   -3.7719    1.4547 C   0  0  1  0  0  0  0  0  0  0  0  0
    3.1078   -2.9991    2.7807 C   0  0  2  0  0  0  0  0  0  0  0  0
    1.9146   -2.0078    2.7162 C   0  0  0  0  0  0  0  0  0  0  0  0
    2.9612   -3.9144    4.0501 C   0  0  1  0  0  0  0  0  0  0  0  0
    2.0413   -5.1750    4.0272 C   0  0  1  0  0  0  0  0  0  0  0  0
    0.9493   -5.0654    3.1566 O   0  0  0  0  0  0  0  0  0  0  0  0
    2.6952   -6.4069    3.9888 O   0  0  0  0  0  0  0  0  0  0  0  0
    3.4728   -6.7172    2.8691 C   0  0  1  0  0  0  0  0  0  0  0  0
    2.7313   -6.9235    1.6853 O   0  0  0  0  0  0  0  0  0  0  0  0
    5.1023   -2.1412   -1.4492 C   0  0  1  0  0  0  0  0  0  0  0  0
    6.3511   -3.0447   -1.3882 C   0  0  0  0  0  0  0  0  0  0  0  0
    2.6203   -1.1194   -2.2658 H   0  0  0  0  0  0  0  0  0  0  0  0
    2.2509   -2.3536   -3.4764 H   0  0  0  0  0  0  0  0  0  0  0  0
    3.6183   -1.2601   -3.7064 H   0  0  0  0  0  0  0  0  0  0  0  0
    4.3676   -3.5164   -2.9690 H   0  0  0  0  0  0  0  0  0  0  0  0
    2.1728   -3.7791   -1.4114 H   0  0  0  0  0  0  0  0  0  0  0  0
    3.6755   -4.6049   -1.0927 H   0  0  0  0  0  0  0  0  0  0  0  0
    2.4462   -2.2853    0.2177 H   0  0  0  0  0  0  0  0  0  0  0  0
    3.9158   -0.8808   -0.2413 H   0  0  0  0  0  0  0  0  0  0  0  0
    6.2259   -2.2158    1.2081 H   0  0  0  0  0  0  0  0  0  0  0  0
    6.8293   -0.0124    1.2052 H   0  0  0  0  0  0  0  0  0  0  0  0
    5.6432   -0.5805    3.0315 H   0  0  0  0  0  0  0  0  0  0  0  0
    4.0898   -0.2969    2.2981 H   0  0  0  0  0  0  0  0  0  0  0  0
    5.9570   -2.5621    4.5852 H   0  0  0  0  0  0  0  0  0  0  0  0
    3.9961   -3.5692    6.6613 H   0  0  0  0  0  0  0  0  0  0  0  0
    5.4967   -4.4736    6.4307 H   0  0  0  0  0  0  0  0  0  0  0  0
    3.9584   -5.3071    6.3652 H   0  0  0  0  0  0  0  0  0  0  0  0
    5.4976   -6.3890    2.4191 H   0  0  0  0  0  0  0  0  0  0  0  0
    5.5091   -4.1865    1.5088 H   0  0  0  0  0  0  0  0  0  0  0  0
    4.6064   -5.3435    0.6332 H   0  0  0  0  0  0  0  0  0  0  0  0
    2.4926   -4.4016    1.3037 H   0  0  0  0  0  0  0  0  0  0  0  0
    1.0108   -2.5241    2.4086 H   0  0  0  0  0  0  0  0  0  0  0  0
    2.0630   -1.1926    2.0086 H   0  0  0  0  0  0  0  0  0  0  0  0
    1.7093   -1.5351    3.6769 H   0  0  0  0  0  0  0  0  0  0  0  0
    2.5039   -3.2757    4.8041 H   0  0  0  0  0  0  0  0  0  0  0  0
    1.5917   -5.2403    5.0198 H   0  0  0  0  0  0  0  0  0  0  0  0
    0.4642   -4.3063    3.4342 H   0  0  0  0  0  0  0  0  0  0  0  0
    3.8868   -7.6914    3.1401 H   0  0  0  0  0  0  0  0  0  0  0  0
    2.2893   -7.7535    1.7758 H   0  0  0  0  0  0  0  0  0  0  0  0
    5.3920   -1.2197   -1.9554 H   0  0  0  0  0  0  0  0  0  0  0  0
    6.1501   -3.9762   -0.8595 H   0  0  0  0  0  0  0  0  0  0  0  0
    7.1868   -2.5494   -0.8936 H   0  0  0  0  0  0  0  0  0  0  0  0
    6.6905   -3.3068   -2.3905 H   0  0  0  0  0  0  0  0  0  0  0  0
  1  2  1  0
  1 27  1  0
  1 28  1  0
  1 29  1  0
  2 25  1  0
  2  3  1  0
  2 30  1  6
  3  4  1  0
  3 31  1  0
  3 32  1  0
  4 16  1  0
  4  5  1  0
  4 33  1  1
  5  6  1  0
  5 25  1  0
  5 34  1  6
  6  7  1  0
  6  8  1  0
  6 35  1  1
  7 36  1  0
  8  9  1  0
  8 37  1  0
  8 38  1  0
  9 17  1  0
  9 10  2  0
 10 11  1  0
 10 39  1  0
 11 19  1  0
 11 12  1  1
 11 13  1  0
 12 40  1  0
 12 41  1  0
 12 42  1  0
 13 14  1  0
 14 23  1  0
 14 15  1  0
 14 43  1  6
 15 16  1  0
 15 44  1  0
 15 45  1  0
 16 17  1  0
 16 46  1  6
 17 18  1  6
 17 19  1  0
 18 47  1  0
 18 48  1  0
 18 49  1  0
 19 20  1  0
 19 50  1  1
 20 21  1  0
 20 22  1  0
 20 51  1  1
 21 52  1  0
 22 23  1  0
 23 24  1  0
 23 53  1  1
 24 54  1  0
 25 26  1  0
 25 55  1  6
 26 56  1  0
 26 57  1  0
 26 58  1  0
M  END
>  <i_m_ct_stereo_status>  (36) 
1

>  <s_m_source_file>  (36) 
/var/tmp/pbs.5076255.sched01/tmp98udq4tg/0t315e5yz.sdf

>  <i_m_source_file_index>  (36) 
15

>  <i_lp_mmshare_version>  (36) 
48012

>  <i_f3d_flags>  (36) 
0

>  <s_epik_input>  (36) 
W09IXVtDQEhdMU9bQ0BASF0oW09IXSlbQ0BIXShPMilbQ0gyXVtDQEBIXTNbQ0BIXShbQ0gyXVtDQEBIXShbQ0gzXSlbQ0BASF00W0NIM10pW0NASF00W0NAQEhdKFtPSF0pW0NIMl1DKD1bQ0hdNSlbQ0BdMyhbQ0gzXSlbQ0BASF0xW0NAQF0yNVtDSDNd

>  <s_epik_cmdline>  (36) 
J2VwaWtfcHl0aG9uJywgJy1waHQnLCAnMi4wJywgJy1waCcsICc3LjAnLCAnLXRuJywgJzgnLCAnLW1hJywgJzIwMCcsICctaW1hZScsICc8aW5maWxlLm1hZT4nLCAnLW9tYWUnLCAnPG91dGZpbGUubWFlPic=

>  <r_lp_tautomer_probability>  (36) 
1

>  <r_epik_Ionization_Penalty>  (36) 
1.07547e-06

>  <r_epik_Ionization_Penalty_Charging>  (36) 
0

>  <r_epik_Ionization_Penalty_Neutral>  (36) 
1.07547e-06

>  <r_epik_State_Penalty>  (36) 
-0

>  <r_epik_Charging_Adjusted_Penalty>  (36) 
0

>  <i_epik_Tot_Q>  (36) 
0

>  <i_epik_Tot_abs_Q>  (36) 
0

>  <s_epik_Chemistry_Notes>  (36) 
This compound contains an acetal/aminal-like group ( X-CH(R)-Y where X, Y are N, S, or O) that may be acid/base labile, releasing an aldehyde.

>  <s_lp_Force_Field>  (36) 
OPLS3e

>  <r_lp_Energy>  (36) 
38.836

>  <b_lp_Chiralities_Consistent>  (36) 
1

>  <s_lp_Variant>  (36) 
12:0-1

>  <s_i_glide_gridfile>  (36) 
pfpi4k_grid

>  <i_i_glide_lignum>  (36) 
15

>  <i_i_glide_rotatable_bonds>  (36) 
3

>  <r_i_docking_score>  (36) 
-3.55012

>  <r_i_glide_ligand_efficiency>  (36) 
-0.136543

>  <r_i_glide_ligand_efficiency_sa>  (36) 
-0.404508

>  <r_i_glide_ligand_efficiency_ln>  (36) 
-0.833733

>  <r_i_glide_gscore>  (36) 
-3.55012

>  <r_i_glide_lipo>  (36) 
-0.390452

>  <r_i_glide_hbond>  (36) 
-0.299976

>  <r_i_glide_metal>  (36) 
-0

>  <r_i_glide_rewards>  (36) 
-0.924029

>  <r_i_glide_evdw>  (36) 
-22.3237

>  <r_i_glide_ecoul>  (36) 
-5.45801

>  <r_i_glide_erotb>  (36) 
0

>  <r_i_glide_esite>  (36) 
-0.000773057

>  <r_i_glide_emodel>  (36) 
-31.9848

>  <r_i_glide_energy>  (36) 
-27.7817

>  <r_i_glide_einternal>  (36) 
2.7995

>  <r_i_glide_intrahb_reward>  (36) 
-0

>  <i_i_glide_confnum>  (36) 
2

>  <i_i_glide_posenum>  (36) 
28

>  <r_i_glide_eff_state_penalty>  (36) 
0

>  <ligand_id>  (36) 
12

>  <original_smiles>  (36) 
CC1CC2C(C(O)CC3=CC4(C)OC5CC2C3(C)C4C(O)OC5O)C1C

>  <smiles>  (36) 
[H]OC1([H])OC([H])(O[H])C2([H])C3(C([H])([H])[H])OC1([H])C([H])([H])C1([H])C4([H])C([H])([H])C([H])(C([H])([H])[H])C([H])(C([H])([H])[H])C4([H])C([H])(O[H])C([H])([H])C(=C3[H])C21C([H])([H])[H]

$$$$
13:0:0
     RDKit          3D

 62 67  0  0  1  0  0  0  0  0999 V2000
    3.1410    2.2598    5.2625 C   0  0  0  0  0  0  0  0  0  0  0  0
    1.9572    1.8751    4.3305 C   0  0  2  0  0  0  0  0  0  0  0  0
    1.9708    2.8204    3.0962 C   0  0  0  0  0  0  0  0  0  0  0  0
    1.6525    4.3076    3.3984 C   0  0  0  0  0  0  0  0  0  0  0  0
    0.4388    4.4746    4.3142 C   0  0  0  0  0  0  0  0  0  0  0  0
   -0.4409    5.3094    4.1039 O   0  0  0  0  0  0  0  0  0  0  0  0
    0.4008    3.5679    5.5378 C   0  0  0  0  0  0  0  0  0  0  0  0
    0.6263    2.1371    5.0674 C   0  0  0  0  0  0  0  0  0  0  0  0
   -0.3683    1.2283    5.1672 C   0  0  0  0  0  0  0  0  0  0  0  0
   -0.3589   -0.1416    4.5141 C   0  0  2  0  0  0  0  0  0  0  0  0
   -0.1338   -1.2862    5.4885 C   0  0  0  0  0  0  0  0  0  0  0  0
   -0.5793   -1.3348    6.6374 O   0  0  0  0  0  0  0  0  0  0  0  0
    0.6099   -2.2113    4.8799 O   0  0  0  0  0  0  0  0  0  0  0  0
    0.9162   -1.8876    3.5264 C   0  0  1  0  0  0  0  0  0  0  0  0
    0.7771   -0.3469    3.5167 C   0  0  2  0  0  0  0  0  0  0  0  0
    2.0832    0.3355    3.9926 C   0  0  1  0  0  0  0  0  0  0  0  0
    3.2840   -0.1877    3.1430 C   0  0  2  0  0  0  0  0  0  0  0  0
    3.1108    0.0629    1.6223 C   0  0  0  0  0  0  0  0  0  0  0  0
    4.3985   -0.2355    0.8706 C   0  0  0  0  0  0  0  0  0  0  0  0
    5.0163   -1.6230    1.1212 C   0  0  2  0  0  0  0  0  0  0  0  0
    6.5013   -1.5301    0.6980 C   0  0  0  0  0  0  0  0  0  0  0  0
    4.4142   -2.7802    0.3240 C   0  0  0  0  0  0  0  0  0  0  0  0
    3.9339   -2.6888   -0.8012 O   0  0  0  0  0  0  0  0  0  0  0  0
    4.5513   -4.0841    1.0908 C   0  0  0  0  0  0  0  0  0  0  0  0
    5.1187   -3.6473    2.4544 C   0  0  0  0  0  0  0  0  0  0  0  0
    4.8720   -2.1193    2.5870 C   0  0  2  0  0  0  0  0  0  0  0  0
    3.5618   -1.7146    3.3922 C   0  0  1  0  0  0  0  0  0  0  0  0
    3.8963   -1.9739    4.8890 C   0  0  0  0  0  0  0  0  0  0  0  0
    2.2473   -2.4838    2.9982 C   0  0  1  0  0  0  0  0  0  0  0  0
    2.2361   -3.8595    3.3339 O   0  0  0  0  0  0  0  0  0  0  0  0
    4.1025    2.0783    4.7867 H   0  0  0  0  0  0  0  0  0  0  0  0
    3.1186    1.6930    6.1936 H   0  0  0  0  0  0  0  0  0  0  0  0
    3.1392    3.3142    5.5337 H   0  0  0  0  0  0  0  0  0  0  0  0
    2.9521    2.7996    2.6238 H   0  0  0  0  0  0  0  0  0  0  0  0
    1.2500    2.4660    2.3581 H   0  0  0  0  0  0  0  0  0  0  0  0
    2.5068    4.7892    3.8735 H   0  0  0  0  0  0  0  0  0  0  0  0
    1.4746    4.8517    2.4726 H   0  0  0  0  0  0  0  0  0  0  0  0
    1.1688    3.8787    6.2425 H   0  0  0  0  0  0  0  0  0  0  0  0
   -0.5608    3.6704    6.0409 H   0  0  0  0  0  0  0  0  0  0  0  0
   -1.2881    1.4989    5.6625 H   0  0  0  0  0  0  0  0  0  0  0  0
   -1.3196   -0.2947    4.0261 H   0  0  0  0  0  0  0  0  0  0  0  0
    0.1287   -2.3138    2.9133 H   0  0  0  0  0  0  0  0  0  0  0  0
    0.4842    0.0260    2.5364 H   0  0  0  0  0  0  0  0  0  0  0  0
    2.2537   -0.0550    4.9905 H   0  0  0  0  0  0  0  0  0  0  0  0
    4.1738    0.3574    3.4535 H   0  0  0  0  0  0  0  0  0  0  0  0
    2.2945   -0.5007    1.1770 H   0  0  0  0  0  0  0  0  0  0  0  0
    2.8506    1.0908    1.4005 H   0  0  0  0  0  0  0  0  0  0  0  0
    4.2164   -0.0903   -0.1919 H   0  0  0  0  0  0  0  0  0  0  0  0
    5.1224    0.5310    1.1471 H   0  0  0  0  0  0  0  0  0  0  0  0
    7.0560   -0.8749    1.3675 H   0  0  0  0  0  0  0  0  0  0  0  0
    6.5951   -1.1226   -0.3093 H   0  0  0  0  0  0  0  0  0  0  0  0
    7.0068   -2.4968    0.6990 H   0  0  0  0  0  0  0  0  0  0  0  0
    3.5790   -4.5656    1.1714 H   0  0  0  0  0  0  0  0  0  0  0  0
    5.2227   -4.7692    0.5760 H   0  0  0  0  0  0  0  0  0  0  0  0
    4.7349   -4.2355    3.2850 H   0  0  0  0  0  0  0  0  0  0  0  0
    6.1952   -3.8268    2.4529 H   0  0  0  0  0  0  0  0  0  0  0  0
    5.7087   -1.6928    3.1461 H   0  0  0  0  0  0  0  0  0  0  0  0
    4.3501   -2.9518    5.0451 H   0  0  0  0  0  0  0  0  0  0  0  0
    3.0172   -1.9601    5.5302 H   0  0  0  0  0  0  0  0  0  0  0  0
    4.5954   -1.2284    5.2742 H   0  0  0  0  0  0  0  0  0  0  0  0
    2.1635   -2.4843    1.9147 H   0  0  0  0  0  0  0  0  0  0  0  0
    3.0135   -4.2658    2.9806 H   0  0  0  0  0  0  0  0  0  0  0  0
  2  1  1  1
  1 31  1  0
  1 32  1  0
  1 33  1  0
  2  8  1  0
  2 16  1  0
  2  3  1  0
  3  4  1  0
  3 34  1  0
  3 35  1  0
  4  5  1  0
  4 36  1  0
  4 37  1  0
  5  6  2  0
  5  7  1  0
  7  8  1  0
  7 38  1  0
  7 39  1  0
  8  9  2  0
  9 10  1  0
  9 40  1  0
 10 15  1  0
 10 11  1  0
 10 41  1  6
 11 12  2  0
 11 13  1  0
 13 14  1  0
 14 29  1  0
 14 15  1  0
 14 42  1  6
 15 16  1  0
 15 43  1  6
 16 17  1  0
 16 44  1  1
 17 27  1  0
 17 18  1  0
 17 45  1  1
 18 19  1  0
 18 46  1  0
 18 47  1  0
 19 20  1  0
 19 48  1  0
 19 49  1  0
 20 26  1  0
 20 21  1  6
 20 22  1  0
 21 50  1  0
 21 51  1  0
 21 52  1  0
 22 23  2  0
 22 24  1  0
 24 25  1  0
 24 53  1  0
 24 54  1  0
 25 26  1  0
 25 55  1  0
 25 56  1  0
 26 27  1  0
 26 57  1  1
 27 28  1  1
 27 29  1  0
 28 58  1  0
 28 59  1  0
 28 60  1  0
 29 30  1  0
 29 61  1  6
 30 62  1  0
M  END
>  <i_m_ct_stereo_status>  (37) 
1

>  <s_m_source_file>  (37) 
/var/tmp/pbs.5076255.sched01/tmp98udq4tg/0t315e5yz.sdf

>  <i_m_source_file_index>  (37) 
16

>  <i_lp_mmshare_version>  (37) 
48012

>  <i_f3d_flags>  (37) 
0

>  <s_epik_input>  (37) 
W0NIMl0xW0NIMl1DKD1PKVtDSDJdQyhbQ0BdMTJbQ0gzXSk9W0NIXVtDQEhdM1tDQEBIXTRbQ0BIXShPQzM9TylbQ0BIXShbT0hdKVtDQF01KFtDSDNdKVtDQEhdKFtDQEBIXTI0KVtDSDJdW0NIMl1bQ0BAXTYoW0NIM10pW0NAQEhdNVtDSDJdW0NIMl1DNj1P

>  <s_epik_cmdline>  (37) 
J2VwaWtfcHl0aG9uJywgJy1waHQnLCAnMi4wJywgJy1waCcsICc3LjAnLCAnLXRuJywgJzgnLCAnLW1hJywgJzIwMCcsICctaW1hZScsICc8aW5maWxlLm1hZT4nLCAnLW9tYWUnLCAnPG91dGZpbGUubWFlPic=

>  <r_lp_tautomer_probability>  (37) 
1

>  <r_epik_Ionization_Penalty>  (37) 
4.3872e-08

>  <r_epik_Ionization_Penalty_Charging>  (37) 
0

>  <r_epik_Ionization_Penalty_Neutral>  (37) 
4.3872e-08

>  <r_epik_State_Penalty>  (37) 
-0

>  <r_epik_Charging_Adjusted_Penalty>  (37) 
0

>  <i_epik_Tot_Q>  (37) 
0

>  <i_epik_Tot_abs_Q>  (37) 
0

>  <s_epik_Chemistry_Notes>  (37) 
This compound has an ester and may undergo hydrolysis at high or low pH.

>  <s_lp_Force_Field>  (37) 
OPLS3e

>  <r_lp_Energy>  (37) 
51.3749

>  <b_lp_Chiralities_Consistent>  (37) 
1

>  <s_lp_Variant>  (37) 
13:0-1

>  <s_i_glide_gridfile>  (37) 
pfpi4k_grid

>  <i_i_glide_lignum>  (37) 
16

>  <i_i_glide_rotatable_bonds>  (37) 
1

>  <r_i_docking_score>  (37) 
-3.15429

>  <r_i_glide_ligand_efficiency>  (37) 
-0.105143

>  <r_i_glide_ligand_efficiency_sa>  (37) 
-0.326704

>  <r_i_glide_ligand_efficiency_ln>  (37) 
-0.71669

>  <r_i_glide_gscore>  (37) 
-3.15429

>  <r_i_glide_lipo>  (37) 
-0.392225

>  <r_i_glide_hbond>  (37) 
-0.0398162

>  <r_i_glide_metal>  (37) 
-0

>  <r_i_glide_rewards>  (37) 
-0.598409

>  <r_i_glide_evdw>  (37) 
-28.0048

>  <r_i_glide_ecoul>  (37) 
-4.36714

>  <r_i_glide_erotb>  (37) 
0

>  <r_i_glide_esite>  (37) 
-0.068534

>  <r_i_glide_emodel>  (37) 
-38.7317

>  <r_i_glide_energy>  (37) 
-32.3719

>  <r_i_glide_einternal>  (37) 
0.334716

>  <r_i_glide_intrahb_reward>  (37) 
-0

>  <i_i_glide_confnum>  (37) 
1

>  <i_i_glide_posenum>  (37) 
9

>  <r_i_glide_eff_state_penalty>  (37) 
0

>  <ligand_id>  (37) 
13

>  <original_smiles>  (37) 
CC12CCC(=O)CC1=CC1C(=O)OC3C1C2C1CCC2(C)C(=O)CCC2C1(C)C3O

>  <smiles>  (37) 
[H]OC1([H])C2([H])OC(=O)C3([H])C([H])=C4C([H])([H])C(=O)C([H])([H])C([H])([H])C4(C([H])([H])[H])C([H])(C32[H])C2([H])C([H])([H])C([H])([H])C3(C([H])([H])[H])C(=O)C([H])([H])C([H])([H])C3([H])C12C([H])([H])[H]

$$$$
13:0:1
     RDKit          3D

 62 67  0  0  1  0  0  0  0  0999 V2000
    5.5875   -3.7348   -0.9243 C   0  0  0  0  0  0  0  0  0  0  0  0
    4.3480   -2.9369   -0.4300 C   0  0  2  0  0  0  0  0  0  0  0  0
    3.1615   -3.1880   -1.3991 C   0  0  0  0  0  0  0  0  0  0  0  0
    3.3318   -2.6464   -2.8361 C   0  0  0  0  0  0  0  0  0  0  0  0
    3.8597   -1.2215   -2.8472 C   0  0  0  0  0  0  0  0  0  0  0  0
    3.4435   -0.3819   -3.6369 O   0  0  0  0  0  0  0  0  0  0  0  0
    5.0126   -0.9317   -1.9040 C   0  0  0  0  0  0  0  0  0  0  0  0
    4.6519   -1.4327   -0.5163 C   0  0  0  0  0  0  0  0  0  0  0  0
    4.4585   -0.5726    0.5036 C   0  0  0  0  0  0  0  0  0  0  0  0
    3.8430   -0.9366    1.8386 C   0  0  2  0  0  0  0  0  0  0  0  0
    4.8452   -0.9950    2.9801 C   0  0  0  0  0  0  0  0  0  0  0  0
    5.8036   -0.2374    3.1136 O   0  0  0  0  0  0  0  0  0  0  0  0
    4.4918   -1.9964    3.7906 O   0  0  0  0  0  0  0  0  0  0  0  0
    3.2756   -2.6317    3.4005 C   0  0  1  0  0  0  0  0  0  0  0  0
    3.2277   -2.3317    1.8840 C   0  0  2  0  0  0  0  0  0  0  0  0
    4.0750   -3.3436    1.0720 C   0  0  1  0  0  0  0  0  0  0  0  0
    3.6453   -4.8036    1.4254 C   0  0  2  0  0  0  0  0  0  0  0  0
    2.1548   -5.0751    1.1509 C   0  0  0  0  0  0  0  0  0  0  0  0
    1.8078   -6.5423    1.2778 C   0  0  0  0  0  0  0  0  0  0  0  0
    2.2238   -7.2157    2.5854 C   0  0  2  0  0  0  0  0  0  0  0  0
    2.2648   -8.7371    2.3033 C   0  0  0  0  0  0  0  0  0  0  0  0
    1.2863   -7.0066    3.7771 C   0  0  0  0  0  0  0  0  0  0  0  0
    0.0736   -6.8065    3.6930 O   0  0  0  0  0  0  0  0  0  0  0  0
    2.0614   -7.0772    5.0808 C   0  0  0  0  0  0  0  0  0  0  0  0
    3.5304   -7.1531    4.6232 C   0  0  0  0  0  0  0  0  0  0  0  0
    3.5814   -6.7003    3.1403 C   0  0  2  0  0  0  0  0  0  0  0  0
    3.9522   -5.1686    2.9168 C   0  0  1  0  0  0  0  0  0  0  0  0
    5.4781   -5.0722    3.1825 C   0  0  0  0  0  0  0  0  0  0  0  0
    3.1845   -4.1279    3.8200 C   0  0  1  0  0  0  0  0  0  0  0  0
    3.5234   -4.1945    5.1897 O   0  0  0  0  0  0  0  0  0  0  0  0
    5.4181   -4.8074   -0.8710 H   0  0  0  0  0  0  0  0  0  0  0  0
    6.4739   -3.5058   -0.3318 H   0  0  0  0  0  0  0  0  0  0  0  0
    5.8413   -3.5306   -1.9621 H   0  0  0  0  0  0  0  0  0  0  0  0
    3.0040   -4.2532   -1.5002 H   0  0  0  0  0  0  0  0  0  0  0  0
    2.2493   -2.7625   -0.9849 H   0  0  0  0  0  0  0  0  0  0  0  0
    4.0418   -3.2553   -3.3983 H   0  0  0  0  0  0  0  0  0  0  0  0
    2.3871   -2.6976   -3.3827 H   0  0  0  0  0  0  0  0  0  0  0  0
    5.9044   -1.4216   -2.2767 H   0  0  0  0  0  0  0  0  0  0  0  0
    5.1982    0.1370   -1.9046 H   0  0  0  0  0  0  0  0  0  0  0  0
    4.6395    0.4821    0.3695 H   0  0  0  0  0  0  0  0  0  0  0  0
    3.0984   -0.1851    2.0852 H   0  0  0  0  0  0  0  0  0  0  0  0
    2.4598   -2.0912    3.8842 H   0  0  0  0  0  0  0  0  0  0  0  0
    2.2073   -2.2938    1.5055 H   0  0  0  0  0  0  0  0  0  0  0  0
    5.0801   -3.2477    1.4670 H   0  0  0  0  0  0  0  0  0  0  0  0
    4.2119   -5.4849    0.7916 H   0  0  0  0  0  0  0  0  0  0  0  0
    1.5065   -4.5077    1.8152 H   0  0  0  0  0  0  0  0  0  0  0  0
    1.8584   -4.7704    0.1561 H   0  0  0  0  0  0  0  0  0  0  0  0
    0.7406   -6.6613    1.1101 H   0  0  0  0  0  0  0  0  0  0  0  0
    2.3243   -7.0510    0.4813 H   0  0  0  0  0  0  0  0  0  0  0  0
    3.0654   -8.9861    1.6067 H   0  0  0  0  0  0  0  0  0  0  0  0
    1.3318   -9.0863    1.8534 H   0  0  0  0  0  0  0  0  0  0  0  0
    2.4213   -9.3294    3.2033 H   0  0  0  0  0  0  0  0  0  0  0  0
    1.8635   -6.1832    5.6696 H   0  0  0  0  0  0  0  0  0  0  0  0
    1.7763   -7.9491    5.6695 H   0  0  0  0  0  0  0  0  0  0  0  0
    4.2035   -6.6035    5.2757 H   0  0  0  0  0  0  0  0  0  0  0  0
    3.8578   -8.1918    4.6772 H   0  0  0  0  0  0  0  0  0  0  0  0
    4.3643   -7.2739    2.6375 H   0  0  0  0  0  0  0  0  0  0  0  0
    5.7706   -5.5712    4.1037 H   0  0  0  0  0  0  0  0  0  0  0  0
    5.8116   -4.0445    3.2835 H   0  0  0  0  0  0  0  0  0  0  0  0
    6.0525   -5.5261    2.3722 H   0  0  0  0  0  0  0  0  0  0  0  0
    2.1277   -4.3779    3.8081 H   0  0  0  0  0  0  0  0  0  0  0  0
    4.4230   -3.9046    5.2812 H   0  0  0  0  0  0  0  0  0  0  0  0
  2  1  1  6
  1 31  1  0
  1 32  1  0
  1 33  1  0
  2  8  1  0
  2 16  1  0
  2  3  1  0
  3  4  1  0
  3 34  1  0
  3 35  1  0
  4  5  1  0
  4 36  1  0
  4 37  1  0
  5  6  2  0
  5  7  1  0
  7  8  1  0
  7 38  1  0
  7 39  1  0
  8  9  2  0
  9 10  1  0
  9 40  1  0
 10 15  1  0
 10 11  1  0
 10 41  1  1
 11 12  2  0
 11 13  1  0
 13 14  1  0
 14 29  1  0
 14 15  1  0
 14 42  1  1
 15 16  1  0
 15 43  1  6
 16 17  1  0
 16 44  1  1
 17 27  1  0
 17 18  1  0
 17 45  1  6
 18 19  1  0
 18 46  1  0
 18 47  1  0
 19 20  1  0
 19 48  1  0
 19 49  1  0
 20 26  1  0
 20 21  1  6
 20 22  1  0
 21 50  1  0
 21 51  1  0
 21 52  1  0
 22 23  2  0
 22 24  1  0
 24 25  1  0
 24 53  1  0
 24 54  1  0
 25 26  1  0
 25 55  1  0
 25 56  1  0
 26 27  1  0
 26 57  1  6
 27 28  1  6
 27 29  1  0
 28 58  1  0
 28 59  1  0
 28 60  1  0
 29 30  1  0
 29 61  1  1
 30 62  1  0
M  END
>  <i_m_ct_stereo_status>  (38) 
1

>  <s_m_source_file>  (38) 
/var/tmp/pbs.5076255.sched01/tmp98udq4tg/0t315e5yz.sdf

>  <i_m_source_file_index>  (38) 
16

>  <i_lp_mmshare_version>  (38) 
48012

>  <i_f3d_flags>  (38) 
0

>  <s_epik_input>  (38) 
W0NIMl0xW0NIMl1DKD1PKVtDSDJdQyhbQ0BdMTJbQ0gzXSk9W0NIXVtDQEhdM1tDQEBIXTRbQ0BIXShPQzM9TylbQ0BIXShbT0hdKVtDQF01KFtDSDNdKVtDQEhdKFtDQEBIXTI0KVtDSDJdW0NIMl1bQ0BAXTYoW0NIM10pW0NAQEhdNVtDSDJdW0NIMl1DNj1P

>  <s_epik_cmdline>  (38) 
J2VwaWtfcHl0aG9uJywgJy1waHQnLCAnMi4wJywgJy1waCcsICc3LjAnLCAnLXRuJywgJzgnLCAnLW1hJywgJzIwMCcsICctaW1hZScsICc8aW5maWxlLm1hZT4nLCAnLW9tYWUnLCAnPG91dGZpbGUubWFlPic=

>  <r_lp_tautomer_probability>  (38) 
1

>  <r_epik_Ionization_Penalty>  (38) 
4.3872e-08

>  <r_epik_Ionization_Penalty_Charging>  (38) 
0

>  <r_epik_Ionization_Penalty_Neutral>  (38) 
4.3872e-08

>  <r_epik_State_Penalty>  (38) 
-0

>  <r_epik_Charging_Adjusted_Penalty>  (38) 
0

>  <i_epik_Tot_Q>  (38) 
0

>  <i_epik_Tot_abs_Q>  (38) 
0

>  <s_epik_Chemistry_Notes>  (38) 
This compound has an ester and may undergo hydrolysis at high or low pH.

>  <s_lp_Force_Field>  (38) 
OPLS3e

>  <r_lp_Energy>  (38) 
51.3749

>  <b_lp_Chiralities_Consistent>  (38) 
1

>  <s_lp_Variant>  (38) 
13:0-1

>  <s_i_glide_gridfile>  (38) 
pfpi4k_grid

>  <i_i_glide_lignum>  (38) 
16

>  <i_i_glide_rotatable_bonds>  (38) 
1

>  <r_i_docking_score>  (38) 
-2.98235

>  <r_i_glide_ligand_efficiency>  (38) 
-0.0994115

>  <r_i_glide_ligand_efficiency_sa>  (38) 
-0.308895

>  <r_i_glide_ligand_efficiency_ln>  (38) 
-0.677621

>  <r_i_glide_gscore>  (38) 
-2.98235

>  <r_i_glide_lipo>  (38) 
-0.263547

>  <r_i_glide_hbond>  (38) 
-0.0457308

>  <r_i_glide_metal>  (38) 
-0

>  <r_i_glide_rewards>  (38) 
-0.717316

>  <r_i_glide_evdw>  (38) 
-31.3801

>  <r_i_glide_ecoul>  (38) 
-2.40646

>  <r_i_glide_erotb>  (38) 
0

>  <r_i_glide_esite>  (38) 
-0.025777

>  <r_i_glide_emodel>  (38) 
-39.9006

>  <r_i_glide_energy>  (38) 
-33.7866

>  <r_i_glide_einternal>  (38) 
0.000927529

>  <r_i_glide_intrahb_reward>  (38) 
-0

>  <i_i_glide_confnum>  (38) 
1

>  <i_i_glide_posenum>  (38) 
10

>  <r_i_glide_eff_state_penalty>  (38) 
0

>  <ligand_id>  (38) 
13

>  <original_smiles>  (38) 
CC12CCC(=O)CC1=CC1C(=O)OC3C1C2C1CCC2(C)C(=O)CCC2C1(C)C3O

>  <smiles>  (38) 
[H]OC1([H])C2([H])OC(=O)C3([H])C([H])=C4C([H])([H])C(=O)C([H])([H])C([H])([H])C4(C([H])([H])[H])C([H])(C32[H])C2([H])C([H])([H])C([H])([H])C3(C([H])([H])[H])C(=O)C([H])([H])C([H])([H])C3([H])C12C([H])([H])[H]

$$$$
13:0:2
     RDKit          3D

 62 67  0  0  1  0  0  0  0  0999 V2000
    1.5526   -6.2482    4.4060 C   0  0  0  0  0  0  0  0  0  0  0  0
    1.7081   -7.0835    3.1040 C   0  0  2  0  0  0  0  0  0  0  0  0
    0.5269   -6.7412    2.1602 C   0  0  0  0  0  0  0  0  0  0  0  0
   -0.8616   -7.1969    2.6645 C   0  0  0  0  0  0  0  0  0  0  0  0
   -0.8636   -8.6324    3.1620 C   0  0  0  0  0  0  0  0  0  0  0  0
   -1.7501   -9.4150    2.8269 O   0  0  0  0  0  0  0  0  0  0  0  0
    0.2731   -9.0091    4.1042 C   0  0  0  0  0  0  0  0  0  0  0  0
    1.5799   -8.5863    3.4408 C   0  0  0  0  0  0  0  0  0  0  0  0
    2.4689   -9.5203    3.0402 C   0  0  0  0  0  0  0  0  0  0  0  0
    3.6663   -9.2517    2.1469 C   0  0  2  0  0  0  0  0  0  0  0  0
    5.0050   -9.2891    2.8659 C   0  0  0  0  0  0  0  0  0  0  0  0
    5.3003  -10.0605    3.7787 O   0  0  0  0  0  0  0  0  0  0  0  0
    5.7913   -8.3405    2.3353 O   0  0  0  0  0  0  0  0  0  0  0  0
    5.1833   -7.6664    1.2379 C   0  0  1  0  0  0  0  0  0  0  0  0
    3.6821   -7.8581    1.5336 C   0  0  2  0  0  0  0  0  0  0  0  0
    3.1403   -6.7854    2.5056 C   0  0  1  0  0  0  0  0  0  0  0  0
    3.4809   -5.3620    1.9556 C   0  0  2  0  0  0  0  0  0  0  0  0
    2.8990   -5.0780    0.5433 C   0  0  0  0  0  0  0  0  0  0  0  0
    3.0423   -3.6068    0.1733 C   0  0  0  0  0  0  0  0  0  0  0  0
    4.4690   -3.0312    0.2924 C   0  0  2  0  0  0  0  0  0  0  0  0
    4.3230   -1.4911    0.3752 C   0  0  0  0  0  0  0  0  0  0  0  0
    5.4199   -3.3096   -0.8760 C   0  0  0  0  0  0  0  0  0  0  0  0
    5.0860   -3.4392   -2.0521 O   0  0  0  0  0  0  0  0  0  0  0  0
    6.8602   -3.3325   -0.3960 C   0  0  0  0  0  0  0  0  0  0  0  0
    6.7359   -3.2371    1.1300 C   0  0  0  0  0  0  0  0  0  0  0  0
    5.2715   -3.5897    1.5034 C   0  0  2  0  0  0  0  0  0  0  0  0
    5.0301   -5.1025    1.9417 C   0  0  1  0  0  0  0  0  0  0  0  0
    5.6125   -5.2254    3.3798 C   0  0  0  0  0  0  0  0  0  0  0  0
    5.6734   -6.2042    1.0179 C   0  0  1  0  0  0  0  0  0  0  0  0
    7.0877   -6.2325    1.0462 O   0  0  0  0  0  0  0  0  0  0  0  0
    1.6489   -5.1802    4.2168 H   0  0  0  0  0  0  0  0  0  0  0  0
    2.3074   -6.5225    5.1432 H   0  0  0  0  0  0  0  0  0  0  0  0
    0.5826   -6.3804    4.8824 H   0  0  0  0  0  0  0  0  0  0  0  0
    0.4793   -5.6634    2.0317 H   0  0  0  0  0  0  0  0  0  0  0  0
    0.6967   -7.1902    1.1804 H   0  0  0  0  0  0  0  0  0  0  0  0
   -1.2150   -6.5642    3.4798 H   0  0  0  0  0  0  0  0  0  0  0  0
   -1.5886   -7.1270    1.8629 H   0  0  0  0  0  0  0  0  0  0  0  0
    0.1418   -8.5055    5.0602 H   0  0  0  0  0  0  0  0  0  0  0  0
    0.2561  -10.0798    4.3042 H   0  0  0  0  0  0  0  0  0  0  0  0
    2.2914  -10.5599    3.2713 H   0  0  0  0  0  0  0  0  0  0  0  0
    3.6851  -10.0039    1.3604 H   0  0  0  0  0  0  0  0  0  0  0  0
    5.4186   -8.2419    0.3449 H   0  0  0  0  0  0  0  0  0  0  0  0
    3.1004   -7.8601    0.6238 H   0  0  0  0  0  0  0  0  0  0  0  0
    3.7372   -6.8994    3.4043 H   0  0  0  0  0  0  0  0  0  0  0  0
    3.0396   -4.6300    2.6298 H   0  0  0  0  0  0  0  0  0  0  0  0
    3.3457   -5.6881   -0.2376 H   0  0  0  0  0  0  0  0  0  0  0  0
    1.8454   -5.3162    0.4730 H   0  0  0  0  0  0  0  0  0  0  0  0
    2.6625   -3.4624   -0.8367 H   0  0  0  0  0  0  0  0  0  0  0  0
    2.3751   -3.0349    0.8228 H   0  0  0  0  0  0  0  0  0  0  0  0
    3.8416   -1.1914    1.3055 H   0  0  0  0  0  0  0  0  0  0  0  0
    3.7070   -1.1088   -0.4416 H   0  0  0  0  0  0  0  0  0  0  0  0
    5.2790   -0.9682    0.3223 H   0  0  0  0  0  0  0  0  0  0  0  0
    7.3424   -4.2576   -0.7054 H   0  0  0  0  0  0  0  0  0  0  0  0
    7.4364   -2.5095   -0.8133 H   0  0  0  0  0  0  0  0  0  0  0  0
    7.4799   -3.8404    1.6444 H   0  0  0  0  0  0  0  0  0  0  0  0
    6.9384   -2.2073    1.4259 H   0  0  0  0  0  0  0  0  0  0  0  0
    4.9993   -2.9825    2.3719 H   0  0  0  0  0  0  0  0  0  0  0  0
    6.6151   -4.8102    3.4453 H   0  0  0  0  0  0  0  0  0  0  0  0
    5.7139   -6.2545    3.7185 H   0  0  0  0  0  0  0  0  0  0  0  0
    4.9886   -4.7030    4.1096 H   0  0  0  0  0  0  0  0  0  0  0  0
    5.4433   -5.9520   -0.0131 H   0  0  0  0  0  0  0  0  0  0  0  0
    7.3575   -6.6045    1.8767 H   0  0  0  0  0  0  0  0  0  0  0  0
  2  1  1  1
  1 31  1  0
  1 32  1  0
  1 33  1  0
  2  8  1  0
  2 16  1  0
  2  3  1  0
  3  4  1  0
  3 34  1  0
  3 35  1  0
  4  5  1  0
  4 36  1  0
  4 37  1  0
  5  6  2  0
  5  7  1  0
  7  8  1  0
  7 38  1  0
  7 39  1  0
  8  9  2  0
  9 10  1  0
  9 40  1  0
 10 15  1  0
 10 11  1  0
 10 41  1  6
 11 12  2  0
 11 13  1  0
 13 14  1  0
 14 29  1  0
 14 15  1  0
 14 42  1  6
 15 16  1  0
 15 43  1  6
 16 17  1  0
 16 44  1  1
 17 27  1  0
 17 18  1  0
 17 45  1  1
 18 19  1  0
 18 46  1  0
 18 47  1  0
 19 20  1  0
 19 48  1  0
 19 49  1  0
 20 26  1  0
 20 21  1  1
 20 22  1  0
 21 50  1  0
 21 51  1  0
 21 52  1  0
 22 23  2  0
 22 24  1  0
 24 25  1  0
 24 53  1  0
 24 54  1  0
 25 26  1  0
 25 55  1  0
 25 56  1  0
 26 27  1  0
 26 57  1  1
 27 28  1  1
 27 29  1  0
 28 58  1  0
 28 59  1  0
 28 60  1  0
 29 30  1  0
 29 61  1  6
 30 62  1  0
M  END
>  <i_m_ct_stereo_status>  (39) 
1

>  <s_m_source_file>  (39) 
/var/tmp/pbs.5076255.sched01/tmp98udq4tg/0t315e5yz.sdf

>  <i_m_source_file_index>  (39) 
16

>  <i_lp_mmshare_version>  (39) 
48012

>  <i_f3d_flags>  (39) 
0

>  <s_epik_input>  (39) 
W0NIMl0xW0NIMl1DKD1PKVtDSDJdQyhbQ0BdMTJbQ0gzXSk9W0NIXVtDQEhdM1tDQEBIXTRbQ0BIXShPQzM9TylbQ0BIXShbT0hdKVtDQF01KFtDSDNdKVtDQEhdKFtDQEBIXTI0KVtDSDJdW0NIMl1bQ0BAXTYoW0NIM10pW0NAQEhdNVtDSDJdW0NIMl1DNj1P

>  <s_epik_cmdline>  (39) 
J2VwaWtfcHl0aG9uJywgJy1waHQnLCAnMi4wJywgJy1waCcsICc3LjAnLCAnLXRuJywgJzgnLCAnLW1hJywgJzIwMCcsICctaW1hZScsICc8aW5maWxlLm1hZT4nLCAnLW9tYWUnLCAnPG91dGZpbGUubWFlPic=

>  <r_lp_tautomer_probability>  (39) 
1

>  <r_epik_Ionization_Penalty>  (39) 
4.3872e-08

>  <r_epik_Ionization_Penalty_Charging>  (39) 
0

>  <r_epik_Ionization_Penalty_Neutral>  (39) 
4.3872e-08

>  <r_epik_State_Penalty>  (39) 
-0

>  <r_epik_Charging_Adjusted_Penalty>  (39) 
0

>  <i_epik_Tot_Q>  (39) 
0

>  <i_epik_Tot_abs_Q>  (39) 
0

>  <s_epik_Chemistry_Notes>  (39) 
This compound has an ester and may undergo hydrolysis at high or low pH.

>  <s_lp_Force_Field>  (39) 
OPLS3e

>  <r_lp_Energy>  (39) 
51.3749

>  <b_lp_Chiralities_Consistent>  (39) 
1

>  <s_lp_Variant>  (39) 
13:0-1

>  <s_i_glide_gridfile>  (39) 
pfpi4k_grid

>  <i_i_glide_lignum>  (39) 
16

>  <i_i_glide_rotatable_bonds>  (39) 
1

>  <r_i_docking_score>  (39) 
-2.70256

>  <r_i_glide_ligand_efficiency>  (39) 
-0.0900854

>  <r_i_glide_ligand_efficiency_sa>  (39) 
-0.279916

>  <r_i_glide_ligand_efficiency_ln>  (39) 
-0.614051

>  <r_i_glide_gscore>  (39) 
-2.70256

>  <r_i_glide_lipo>  (39) 
-0.460053

>  <r_i_glide_hbond>  (39) 
0

>  <r_i_glide_metal>  (39) 
-0

>  <r_i_glide_rewards>  (39) 
-0.692873

>  <r_i_glide_evdw>  (39) 
-31.5405

>  <r_i_glide_ecoul>  (39) 
0.614789

>  <r_i_glide_erotb>  (39) 
0

>  <r_i_glide_esite>  (39) 
-0.0648304

>  <r_i_glide_emodel>  (39) 
-36.4117

>  <r_i_glide_energy>  (39) 
-30.9257

>  <r_i_glide_einternal>  (39) 
0.0163821

>  <r_i_glide_intrahb_reward>  (39) 
-0

>  <i_i_glide_confnum>  (39) 
1

>  <i_i_glide_posenum>  (39) 
11

>  <r_i_glide_eff_state_penalty>  (39) 
0

>  <ligand_id>  (39) 
13

>  <original_smiles>  (39) 
CC12CCC(=O)CC1=CC1C(=O)OC3C1C2C1CCC2(C)C(=O)CCC2C1(C)C3O

>  <smiles>  (39) 
[H]OC1([H])C2([H])OC(=O)C3([H])C([H])=C4C([H])([H])C(=O)C([H])([H])C([H])([H])C4(C([H])([H])[H])C([H])(C32[H])C2([H])C([H])([H])C([H])([H])C3(C([H])([H])[H])C(=O)C([H])([H])C([H])([H])C3([H])C12C([H])([H])[H]

$$$$
14:0:0
     RDKit          3D

 71 75  0  0  1  0  0  0  0  0999 V2000
    4.5219   -5.9264    3.8819 C   0  0  0  0  0  0  0  0  0  0  0  0
    3.1822   -6.0569    4.6073 C   0  0  0  0  0  0  0  0  0  0  0  0
    2.7967   -7.2204    5.1944 C   0  0  0  0  0  0  0  0  0  0  0  0
    3.0603   -8.4189    4.3556 C   0  0  0  0  0  0  0  0  0  0  0  0
    4.1058   -9.0536    4.3781 O   0  0  0  0  0  0  0  0  0  0  0  0
    2.0053   -8.7257    3.4867 O   0  0  0  0  0  0  0  0  0  0  0  0
    0.6140   -8.2749    3.5521 C   0  0  1  0  0  0  0  0  0  0  0  0
    0.0410   -8.5364    2.1303 C   0  0  0  0  0  0  0  0  0  0  0  0
   -0.1779   -9.2557    4.4653 C   0  0  0  0  0  0  0  0  0  0  0  0
    0.5477   -9.8263    5.6931 C   0  0  1  0  0  0  0  0  0  0  0  0
    1.4078  -10.8746    5.2747 O   0  0  0  0  0  0  0  0  0  0  0  0
    1.2170   -8.8053    6.6600 C   0  0  1  0  0  0  0  0  0  0  0  0
    2.2742   -9.4623    7.3402 O   0  0  0  0  0  0  0  0  0  0  0  0
    1.6322   -7.3478    6.1924 C   0  0  1  0  0  0  0  0  0  0  0  0
    2.0754   -6.6583    7.5150 C   0  0  0  0  0  0  0  0  0  0  0  0
    0.4151   -6.6110    5.5613 C   0  0  1  0  0  0  0  0  0  0  0  0
    0.3792   -5.2463    5.9903 O   0  0  0  0  0  0  0  0  0  0  0  0
    1.2909   -4.3400    5.3695 C   0  0  1  0  0  0  0  0  0  0  0  0
    2.0190   -3.4425    6.3879 C   0  0  0  0  0  0  0  0  0  0  0  0
    2.1647   -4.9512    4.2263 C   0  0  1  0  0  0  0  0  0  0  0  0
    2.9146   -3.8519    3.6248 O   0  0  0  0  0  0  0  0  0  0  0  0
    2.3339   -2.7974    2.8633 C   0  0  2  0  0  0  0  0  0  0  0  0
    2.2751   -3.0484    1.4703 O   0  0  0  0  0  0  0  0  0  0  0  0
    3.5515   -3.3100    0.8584 C   0  0  1  0  0  0  0  0  0  0  0  0
    3.2988   -3.8410   -0.5748 C   0  0  0  0  0  0  0  0  0  0  0  0
    4.5134   -4.2501   -1.1828 O   0  0  0  0  0  0  0  0  0  0  0  0
    4.4133   -2.0404    0.9315 C   0  0  1  0  0  0  0  0  0  0  0  0
    3.9139   -1.0307    0.0654 O   0  0  0  0  0  0  0  0  0  0  0  0
    4.5046   -1.5809    2.4023 C   0  0  1  0  0  0  0  0  0  0  0  0
    5.3303   -0.4241    2.5605 O   0  0  0  0  0  0  0  0  0  0  0  0
    3.1141   -1.4778    3.0936 C   0  0  1  0  0  0  0  0  0  0  0  0
    2.3153   -0.4042    2.5978 O   0  0  0  0  0  0  0  0  0  0  0  0
    1.1484   -5.6224    3.2449 C   0  0  1  0  0  0  0  0  0  0  0  0
    1.7146   -6.0431    1.8794 C   0  0  0  0  0  0  0  0  0  0  0  0
    0.3433   -6.7686    3.9939 C   0  0  1  0  0  0  0  0  0  0  0  0
    5.0221   -5.0185    4.2126 H   0  0  0  0  0  0  0  0  0  0  0  0
    4.3974   -5.8826    2.8040 H   0  0  0  0  0  0  0  0  0  0  0  0
    5.2016   -6.7451    4.1204 H   0  0  0  0  0  0  0  0  0  0  0  0
   -0.9079   -8.0315    1.9639 H   0  0  0  0  0  0  0  0  0  0  0  0
   -0.1180   -9.5946    1.9620 H   0  0  0  0  0  0  0  0  0  0  0  0
    0.7119   -8.2834    1.3215 H   0  0  0  0  0  0  0  0  0  0  0  0
   -1.1194   -8.8044    4.7663 H   0  0  0  0  0  0  0  0  0  0  0  0
   -0.4895  -10.1266    3.8944 H   0  0  0  0  0  0  0  0  0  0  0  0
   -0.2060  -10.3561    6.2753 H   0  0  0  0  0  0  0  0  0  0  0  0
    1.4699  -11.5155    5.9956 H   0  0  0  0  0  0  0  0  0  0  0  0
    0.4565   -8.6461    7.4228 H   0  0  0  0  0  0  0  0  0  0  0  0
    2.0178  -10.3642    7.4973 H   0  0  0  0  0  0  0  0  0  0  0  0
    2.8405   -7.2218    8.0357 H   0  0  0  0  0  0  0  0  0  0  0  0
    1.2420   -6.5147    8.1963 H   0  0  0  0  0  0  0  0  0  0  0  0
    2.5384   -5.7003    7.3491 H   0  0  0  0  0  0  0  0  0  0  0  0
   -0.4969   -7.0292    5.9912 H   0  0  0  0  0  0  0  0  0  0  0  0
    0.5815   -3.6562    4.9093 H   0  0  0  0  0  0  0  0  0  0  0  0
    1.9611   -2.3959    6.0857 H   0  0  0  0  0  0  0  0  0  0  0  0
    3.0754   -3.6958    6.4774 H   0  0  0  0  0  0  0  0  0  0  0  0
    1.5547   -3.5191    7.3749 H   0  0  0  0  0  0  0  0  0  0  0  0
    1.2920   -2.6683    3.1812 H   0  0  0  0  0  0  0  0  0  0  0  0
    4.0717   -4.0791    1.4415 H   0  0  0  0  0  0  0  0  0  0  0  0
    2.6130   -4.6932   -0.5568 H   0  0  0  0  0  0  0  0  0  0  0  0
    2.8037   -3.0994   -1.2036 H   0  0  0  0  0  0  0  0  0  0  0  0
    4.2800   -4.8327   -1.9388 H   0  0  0  0  0  0  0  0  0  0  0  0
    5.4194   -2.3194    0.5909 H   0  0  0  0  0  0  0  0  0  0  0  0
    2.9429   -1.0497    0.0796 H   0  0  0  0  0  0  0  0  0  0  0  0
    5.0184   -2.3813    2.9245 H   0  0  0  0  0  0  0  0  0  0  0  0
    6.1632   -0.5673    2.0735 H   0  0  0  0  0  0  0  0  0  0  0  0
    3.2538   -1.3181    4.1674 H   0  0  0  0  0  0  0  0  0  0  0  0
    2.1622   -0.5490    1.6555 H   0  0  0  0  0  0  0  0  0  0  0  0
    0.4253   -4.8449    3.0272 H   0  0  0  0  0  0  0  0  0  0  0  0
    2.3193   -6.9462    1.9237 H   0  0  0  0  0  0  0  0  0  0  0  0
    2.3496   -5.3037    1.4838 H   0  0  0  0  0  0  0  0  0  0  0  0
    0.9046   -6.2303    1.1748 H   0  0  0  0  0  0  0  0  0  0  0  0
   -0.7041   -6.5746    3.7602 H   0  0  0  0  0  0  0  0  0  0  0  0
  1  2  1  0
  1 36  1  0
  1 37  1  0
  1 38  1  0
  2 20  1  0
  2  3  2  0
  3 14  1  0
  3  4  1  0
  4  5  2  0
  4  6  1  0
  6  7  1  0
  7 35  1  0
  7  8  1  6
  7  9  1  0
  8 39  1  0
  8 40  1  0
  8 41  1  0
  9 10  1  0
  9 42  1  0
  9 43  1  0
 10 11  1  0
 10 12  1  0
 10 44  1  1
 11 45  1  0
 12 13  1  0
 12 14  1  0
 12 46  1  1
 13 47  1  0
 14 15  1  1
 14 16  1  0
 15 48  1  0
 15 49  1  0
 15 50  1  0
 16 35  1  0
 16 17  1  0
 16 51  1  1
 17 18  1  0
 18 19  1  0
 18 20  1  0
 18 52  1  6
 19 53  1  0
 19 54  1  0
 19 55  1  0
 20 21  1  6
 20 33  1  0
 21 22  1  0
 22 31  1  0
 22 23  1  0
 22 56  1  1
 23 24  1  0
 24 25  1  0
 24 27  1  0
 24 57  1  1
 25 26  1  0
 25 58  1  0
 25 59  1  0
 26 60  1  0
 27 28  1  0
 27 29  1  0
 27 61  1  6
 28 62  1  0
 29 30  1  0
 29 31  1  0
 29 63  1  1
 30 64  1  0
 31 32  1  0
 31 65  1  1
 32 66  1  0
 33 34  1  0
 33 35  1  0
 33 67  1  6
 34 68  1  0
 34 69  1  0
 34 70  1  0
 35 71  1  6
M  END
>  <i_m_ct_stereo_status>  (40) 
1

>  <s_m_source_file>  (40) 
/var/tmp/pbs.5076255.sched01/tmp98udq4tg/0t315e5yz.sdf

>  <i_m_source_file_index>  (40) 
17

>  <i_lp_mmshare_version>  (40) 
48012

>  <i_f3d_flags>  (40) 
0

>  <s_epik_input>  (40) 
W0NIM11bQ0BdMTJbQ0BIXTNbQ0BIXTRbQ0BAXShbQ0gzXSkoW0NASF0oW09IXSlbQ0BASF0oW0NIMl0yKVtPSF0pQyhDKD1PKU8xKT1DKFtDSDNdKVtDQF0oW0NAQEhdKE80KVtDSDNdKShbQ0BIXTNbQ0gzXSlPW0NAQEhdNU9bQ0BASF0oW0NIMl1bT0hdKVtDQEBIXShbT0hdKVtDQEBIXShbT0hdKVtDQEhdNVtPSF0=

>  <s_epik_cmdline>  (40) 
J2VwaWtfcHl0aG9uJywgJy1waHQnLCAnMi4wJywgJy1waCcsICc3LjAnLCAnLXRuJywgJzgnLCAnLW1hJywgJzIwMCcsICctaW1hZScsICc8aW5maWxlLm1hZT4nLCAnLW9tYWUnLCAnPG91dGZpbGUubWFlPic=

>  <r_lp_tautomer_probability>  (40) 
1

>  <r_epik_Ionization_Penalty>  (40) 
4.84667e-06

>  <r_epik_Ionization_Penalty_Charging>  (40) 
0

>  <r_epik_Ionization_Penalty_Neutral>  (40) 
4.84667e-06

>  <r_epik_State_Penalty>  (40) 
-0

>  <r_epik_Charging_Adjusted_Penalty>  (40) 
0

>  <i_epik_Tot_Q>  (40) 
0

>  <i_epik_Tot_abs_Q>  (40) 
0

>  <s_epik_Chemistry_Notes>  (40) 
This compound has an ester and may undergo hydrolysis at high or low pH. This compound contains an acetal/aminal-like group ( X-CH(R)-Y where X, Y are N, S, or O) that may be acid/base labile, releasing an aldehyde.

>  <s_lp_Force_Field>  (40) 
OPLS3e

>  <r_lp_Energy>  (40) 
124.011

>  <b_lp_Chiralities_Consistent>  (40) 
1

>  <s_lp_Variant>  (40) 
14:0-1

>  <s_i_glide_gridfile>  (40) 
pfpi4k_grid

>  <i_i_glide_lignum>  (40) 
17

>  <i_i_glide_rotatable_bonds>  (40) 
9

>  <r_i_docking_score>  (40) 
-2.8131

>  <r_i_glide_ligand_efficiency>  (40) 
-0.0803743

>  <r_i_glide_ligand_efficiency_sa>  (40) 
-0.26291

>  <r_i_glide_ligand_efficiency_ln>  (40) 
-0.617538

>  <r_i_glide_gscore>  (40) 
-2.8131

>  <r_i_glide_lipo>  (40) 
-0.0378206

>  <r_i_glide_hbond>  (40) 
-0.259874

>  <r_i_glide_metal>  (40) 
-0

>  <r_i_glide_rewards>  (40) 
0

>  <r_i_glide_evdw>  (40) 
-21.941

>  <r_i_glide_ecoul>  (40) 
-11.0607

>  <r_i_glide_erotb>  (40) 
0.244519

>  <r_i_glide_esite>  (40) 
-0.00377208

>  <r_i_glide_emodel>  (40) 
-36.113

>  <r_i_glide_energy>  (40) 
-33.0017

>  <r_i_glide_einternal>  (40) 
2.51815

>  <r_i_glide_intrahb_reward>  (40) 
-0

>  <i_i_glide_confnum>  (40) 
1

>  <i_i_glide_posenum>  (40) 
7

>  <r_i_glide_eff_state_penalty>  (40) 
0

>  <ligand_id>  (40) 
14

>  <original_smiles>  (40) 
CC1=C2C(=O)OC3(C)CC(O)C(O)C2(C)C2OC(C)C1(OC1OC(CO)C(O)C(O)C1O)C(C)C23

>  <smiles>  (40) 
[H]OC([H])([H])C1([H])OC([H])(OC23C(C([H])([H])[H])=C4C(=O)OC5(C([H])([H])[H])C([H])([H])C([H])(O[H])C([H])(O[H])C4(C([H])([H])[H])C([H])(OC2([H])C([H])([H])[H])C5([H])C3([H])C([H])([H])[H])C([H])(O[H])C([H])(O[H])C1([H])O[H]

$$$$
14:0:1
     RDKit          3D

 71 75  0  0  1  0  0  0  0  0999 V2000
    4.1927   -7.6535    1.2893 C   0  0  0  0  0  0  0  0  0  0  0  0
    3.8685   -7.4842    2.7749 C   0  0  0  0  0  0  0  0  0  0  0  0
    3.3680   -8.5121    3.5208 C   0  0  0  0  0  0  0  0  0  0  0  0
    2.2972   -9.2720    2.8337 C   0  0  0  0  0  0  0  0  0  0  0  0
    2.5101  -10.2293    2.1047 O   0  0  0  0  0  0  0  0  0  0  0  0
    1.0158   -8.7477    3.0318 O   0  0  0  0  0  0  0  0  0  0  0  0
    0.5724   -7.8373    4.0830 C   0  0  1  0  0  0  0  0  0  0  0  0
   -0.7764   -7.2629    3.5579 C   0  0  0  0  0  0  0  0  0  0  0  0
    0.1770   -8.6670    5.3439 C   0  0  0  0  0  0  0  0  0  0  0  0
    1.0175   -9.9100    5.6712 C   0  0  1  0  0  0  0  0  0  0  0  0
    0.6102  -10.9658    4.8180 O   0  0  0  0  0  0  0  0  0  0  0  0
    2.5637   -9.7275    5.7590 C   0  0  1  0  0  0  0  0  0  0  0  0
    3.1886  -10.9753    5.4976 O   0  0  0  0  0  0  0  0  0  0  0  0
    3.3131   -8.5218    5.0550 C   0  0  1  0  0  0  0  0  0  0  0  0
    4.7761   -8.6466    5.5771 C   0  0  0  0  0  0  0  0  0  0  0  0
    2.6826   -7.1688    5.4831 C   0  0  1  0  0  0  0  0  0  0  0  0
    3.7011   -6.1974    5.7272 O   0  0  0  0  0  0  0  0  0  0  0  0
    4.3102   -5.5812    4.5921 C   0  0  1  0  0  0  0  0  0  0  0  0
    5.8411   -5.5391    4.6920 C   0  0  0  0  0  0  0  0  0  0  0  0
    3.7220   -6.0077    3.2168 C   0  0  1  0  0  0  0  0  0  0  0  0
    4.3723   -5.1737    2.2084 O   0  0  0  0  0  0  0  0  0  0  0  0
    4.1545   -3.7784    2.0679 C   0  0  2  0  0  0  0  0  0  0  0  0
    3.2300   -3.4451    1.0610 O   0  0  0  0  0  0  0  0  0  0  0  0
    3.5731   -3.9406   -0.2486 C   0  0  1  0  0  0  0  0  0  0  0  0
    2.4000   -3.6421   -1.1858 C   0  0  0  0  0  0  0  0  0  0  0  0
    1.4191   -4.6503   -1.1197 O   0  0  0  0  0  0  0  0  0  0  0  0
    4.8689   -3.2687   -0.7116 C   0  0  1  0  0  0  0  0  0  0  0  0
    4.6418   -1.8879   -0.9771 O   0  0  0  0  0  0  0  0  0  0  0  0
    5.9704   -3.4687    0.3394 C   0  0  1  0  0  0  0  0  0  0  0  0
    7.1713   -2.8041   -0.0652 O   0  0  0  0  0  0  0  0  0  0  0  0
    5.4925   -3.0737    1.7558 C   0  0  1  0  0  0  0  0  0  0  0  0
    5.2803   -1.6734    1.8616 O   0  0  0  0  0  0  0  0  0  0  0  0
    2.1858   -5.7552    3.3376 C   0  0  1  0  0  0  0  0  0  0  0  0
    1.4141   -5.8076    2.0106 C   0  0  0  0  0  0  0  0  0  0  0  0
    1.5695   -6.6588    4.4889 C   0  0  1  0  0  0  0  0  0  0  0  0
    5.1848   -7.2544    1.0860 H   0  0  0  0  0  0  0  0  0  0  0  0
    3.4805   -7.1371    0.6521 H   0  0  0  0  0  0  0  0  0  0  0  0
    4.2271   -8.6978    0.9867 H   0  0  0  0  0  0  0  0  0  0  0  0
   -1.1009   -6.3915    4.1222 H   0  0  0  0  0  0  0  0  0  0  0  0
   -1.5828   -7.9889    3.6047 H   0  0  0  0  0  0  0  0  0  0  0  0
   -0.7574   -7.0106    2.5046 H   0  0  0  0  0  0  0  0  0  0  0  0
    0.1295   -8.0246    6.2188 H   0  0  0  0  0  0  0  0  0  0  0  0
   -0.8419   -9.0350    5.2528 H   0  0  0  0  0  0  0  0  0  0  0  0
    0.6976  -10.2491    6.6576 H   0  0  0  0  0  0  0  0  0  0  0  0
   -0.3408  -11.0538    4.8770 H   0  0  0  0  0  0  0  0  0  0  0  0
    2.7484   -9.5810    6.8224 H   0  0  0  0  0  0  0  0  0  0  0  0
    2.7163  -11.6414    5.9803 H   0  0  0  0  0  0  0  0  0  0  0  0
    5.2007   -9.6281    5.3984 H   0  0  0  0  0  0  0  0  0  0  0  0
    4.8466   -8.4475    6.6436 H   0  0  0  0  0  0  0  0  0  0  0  0
    5.4643   -7.9867    5.0735 H   0  0  0  0  0  0  0  0  0  0  0  0
    2.2347   -7.3011    6.4678 H   0  0  0  0  0  0  0  0  0  0  0  0
    4.0204   -4.5496    4.7666 H   0  0  0  0  0  0  0  0  0  0  0  0
    6.2010   -4.5319    4.4892 H   0  0  0  0  0  0  0  0  0  0  0  0
    6.3166   -6.2098    3.9753 H   0  0  0  0  0  0  0  0  0  0  0  0
    6.1732   -5.8004    5.6965 H   0  0  0  0  0  0  0  0  0  0  0  0
    3.7259   -3.3847    2.9952 H   0  0  0  0  0  0  0  0  0  0  0  0
    3.7381   -5.0180   -0.1945 H   0  0  0  0  0  0  0  0  0  0  0  0
    1.9762   -2.6543   -0.9874 H   0  0  0  0  0  0  0  0  0  0  0  0
    2.7483   -3.6318   -2.2179 H   0  0  0  0  0  0  0  0  0  0  0  0
    1.7611   -5.3828   -1.6618 H   0  0  0  0  0  0  0  0  0  0  0  0
    5.1713   -3.7530   -1.6445 H   0  0  0  0  0  0  0  0  0  0  0  0
    5.4685   -1.5074   -1.2945 H   0  0  0  0  0  0  0  0  0  0  0  0
    6.1865   -4.5387    0.3685 H   0  0  0  0  0  0  0  0  0  0  0  0
    7.8594   -2.9571    0.5990 H   0  0  0  0  0  0  0  0  0  0  0  0
    6.2298   -3.3749    2.4952 H   0  0  0  0  0  0  0  0  0  0  0  0
    4.6923   -1.4284    1.1245 H   0  0  0  0  0  0  0  0  0  0  0  0
    2.0618   -4.7252    3.6827 H   0  0  0  0  0  0  0  0  0  0  0  0
    1.2760   -6.8010    1.5939 H   0  0  0  0  0  0  0  0  0  0  0  0
    1.9141   -5.2594    1.2411 H   0  0  0  0  0  0  0  0  0  0  0  0
    0.4496   -5.3343    2.1400 H   0  0  0  0  0  0  0  0  0  0  0  0
    0.9739   -5.9668    5.0883 H   0  0  0  0  0  0  0  0  0  0  0  0
  1  2  1  0
  1 36  1  0
  1 37  1  0
  1 38  1  0
  2 20  1  0
  2  3  2  0
  3 14  1  0
  3  4  1  0
  4  5  2  0
  4  6  1  0
  6  7  1  0
  7 35  1  0
  7  8  1  6
  7  9  1  0
  8 39  1  0
  8 40  1  0
  8 41  1  0
  9 10  1  0
  9 42  1  0
  9 43  1  0
 10 11  1  0
 10 12  1  0
 10 44  1  1
 11 45  1  0
 12 13  1  0
 12 14  1  0
 12 46  1  1
 13 47  1  0
 14 15  1  1
 14 16  1  0
 15 48  1  0
 15 49  1  0
 15 50  1  0
 16 35  1  0
 16 17  1  0
 16 51  1  1
 17 18  1  0
 18 19  1  0
 18 20  1  0
 18 52  1  1
 19 53  1  0
 19 54  1  0
 19 55  1  0
 20 21  1  6
 20 33  1  0
 21 22  1  0
 22 31  1  0
 22 23  1  0
 22 56  1  1
 23 24  1  0
 24 25  1  0
 24 27  1  0
 24 57  1  1
 25 26  1  0
 25 58  1  0
 25 59  1  0
 26 60  1  0
 27 28  1  0
 27 29  1  0
 27 61  1  6
 28 62  1  0
 29 30  1  0
 29 31  1  0
 29 63  1  1
 30 64  1  0
 31 32  1  0
 31 65  1  1
 32 66  1  0
 33 34  1  0
 33 35  1  0
 33 67  1  1
 34 68  1  0
 34 69  1  0
 34 70  1  0
 35 71  1  1
M  END
>  <i_m_ct_stereo_status>  (41) 
1

>  <s_m_source_file>  (41) 
/var/tmp/pbs.5076255.sched01/tmp98udq4tg/0t315e5yz.sdf

>  <i_m_source_file_index>  (41) 
17

>  <i_lp_mmshare_version>  (41) 
48012

>  <i_f3d_flags>  (41) 
0

>  <s_epik_input>  (41) 
W0NIM11bQ0BdMTJbQ0BIXTNbQ0BIXTRbQ0BAXShbQ0gzXSkoW0NASF0oW09IXSlbQ0BASF0oW0NIMl0yKVtPSF0pQyhDKD1PKU8xKT1DKFtDSDNdKVtDQF0oW0NAQEhdKE80KVtDSDNdKShbQ0BIXTNbQ0gzXSlPW0NAQEhdNU9bQ0BASF0oW0NIMl1bT0hdKVtDQEBIXShbT0hdKVtDQEBIXShbT0hdKVtDQEhdNVtPSF0=

>  <s_epik_cmdline>  (41) 
J2VwaWtfcHl0aG9uJywgJy1waHQnLCAnMi4wJywgJy1waCcsICc3LjAnLCAnLXRuJywgJzgnLCAnLW1hJywgJzIwMCcsICctaW1hZScsICc8aW5maWxlLm1hZT4nLCAnLW9tYWUnLCAnPG91dGZpbGUubWFlPic=

>  <r_lp_tautomer_probability>  (41) 
1

>  <r_epik_Ionization_Penalty>  (41) 
4.84667e-06

>  <r_epik_Ionization_Penalty_Charging>  (41) 
0

>  <r_epik_Ionization_Penalty_Neutral>  (41) 
4.84667e-06

>  <r_epik_State_Penalty>  (41) 
-0

>  <r_epik_Charging_Adjusted_Penalty>  (41) 
0

>  <i_epik_Tot_Q>  (41) 
0

>  <i_epik_Tot_abs_Q>  (41) 
0

>  <s_epik_Chemistry_Notes>  (41) 
This compound has an ester and may undergo hydrolysis at high or low pH. This compound contains an acetal/aminal-like group ( X-CH(R)-Y where X, Y are N, S, or O) that may be acid/base labile, releasing an aldehyde.

>  <s_lp_Force_Field>  (41) 
OPLS3e

>  <r_lp_Energy>  (41) 
124.011

>  <b_lp_Chiralities_Consistent>  (41) 
1

>  <s_lp_Variant>  (41) 
14:0-1

>  <s_i_glide_gridfile>  (41) 
pfpi4k_grid

>  <i_i_glide_lignum>  (41) 
17

>  <i_i_glide_rotatable_bonds>  (41) 
9

>  <r_i_docking_score>  (41) 
-2.74239

>  <r_i_glide_ligand_efficiency>  (41) 
-0.0783539

>  <r_i_glide_ligand_efficiency_sa>  (41) 
-0.256301

>  <r_i_glide_ligand_efficiency_ln>  (41) 
-0.602015

>  <r_i_glide_gscore>  (41) 
-2.74239

>  <r_i_glide_lipo>  (41) 
-0.214558

>  <r_i_glide_hbond>  (41) 
0

>  <r_i_glide_metal>  (41) 
-0

>  <r_i_glide_rewards>  (41) 
-0.515428

>  <r_i_glide_evdw>  (41) 
-22.9802

>  <r_i_glide_ecoul>  (41) 
-7.38605

>  <r_i_glide_erotb>  (41) 
0.244519

>  <r_i_glide_esite>  (41) 
0

>  <r_i_glide_emodel>  (41) 
-37.7159

>  <r_i_glide_energy>  (41) 
-30.3663

>  <r_i_glide_einternal>  (41) 
5.46684

>  <r_i_glide_intrahb_reward>  (41) 
-0.5

>  <i_i_glide_confnum>  (41) 
1

>  <i_i_glide_posenum>  (41) 
27

>  <r_i_glide_eff_state_penalty>  (41) 
0

>  <ligand_id>  (41) 
14

>  <original_smiles>  (41) 
CC1=C2C(=O)OC3(C)CC(O)C(O)C2(C)C2OC(C)C1(OC1OC(CO)C(O)C(O)C1O)C(C)C23

>  <smiles>  (41) 
[H]OC([H])([H])C1([H])OC([H])(OC23C(C([H])([H])[H])=C4C(=O)OC5(C([H])([H])[H])C([H])([H])C([H])(O[H])C([H])(O[H])C4(C([H])([H])[H])C([H])(OC2([H])C([H])([H])[H])C5([H])C3([H])C([H])([H])[H])C([H])(O[H])C([H])(O[H])C1([H])O[H]

$$$$
14:0:2
     RDKit          3D

 71 75  0  0  1  0  0  0  0  0999 V2000
    4.6467   -6.7472    2.4606 C   0  0  0  0  0  0  0  0  0  0  0  0
    3.6124   -6.8587    3.5822 C   0  0  0  0  0  0  0  0  0  0  0  0
    3.1968   -8.0496    4.0684 C   0  0  0  0  0  0  0  0  0  0  0  0
    2.9472   -9.0702    3.0105 C   0  0  0  0  0  0  0  0  0  0  0  0
    3.7836   -9.8415    2.5636 O   0  0  0  0  0  0  0  0  0  0  0  0
    1.6284   -9.0259    2.5449 O   0  0  0  0  0  0  0  0  0  0  0  0
    0.4596   -8.4350    3.1624 C   0  0  1  0  0  0  0  0  0  0  0  0
   -0.5919   -8.2737    2.0138 C   0  0  0  0  0  0  0  0  0  0  0  0
   -0.1695   -9.4750    4.1237 C   0  0  0  0  0  0  0  0  0  0  0  0
    0.7822  -10.3967    4.9099 C   0  0  1  0  0  0  0  0  0  0  0  0
    1.2316  -11.4391    4.0528 O   0  0  0  0  0  0  0  0  0  0  0  0
    1.9118   -9.7106    5.7196 C   0  0  1  0  0  0  0  0  0  0  0  0
    2.9712  -10.6443    5.8843 O   0  0  0  0  0  0  0  0  0  0  0  0
    2.4311   -8.2481    5.3805 C   0  0  1  0  0  0  0  0  0  0  0  0
    3.4047   -7.9346    6.5544 C   0  0  0  0  0  0  0  0  0  0  0  0
    1.2546   -7.2403    5.3390 C   0  0  1  0  0  0  0  0  0  0  0  0
    1.6207   -6.0037    5.9607 O   0  0  0  0  0  0  0  0  0  0  0  0
    2.4474   -5.1104    5.2222 C   0  0  1  0  0  0  0  0  0  0  0  0
    3.6218   -4.5775    6.0547 C   0  0  0  0  0  0  0  0  0  0  0  0
    2.7732   -5.5795    3.7745 C   0  0  1  0  0  0  0  0  0  0  0  0
    3.4913   -4.4574    3.1493 O   0  0  0  0  0  0  0  0  0  0  0  0
    2.8775   -3.2538    2.7129 C   0  0  2  0  0  0  0  0  0  0  0  0
    2.6493   -3.1627    1.3181 O   0  0  0  0  0  0  0  0  0  0  0  0
    3.8350   -3.3992    0.5165 C   0  0  1  0  0  0  0  0  0  0  0  0
    3.4294   -3.5797   -0.9588 C   0  0  0  0  0  0  0  0  0  0  0  0
    4.5857   -3.8604   -1.7635 O   0  0  0  0  0  0  0  0  0  0  0  0
    4.7942   -2.2142    0.7591 C   0  0  1  0  0  0  0  0  0  0  0  0
    4.2642   -1.0093    0.1947 O   0  0  0  0  0  0  0  0  0  0  0  0
    5.0596   -2.0556    2.2725 C   0  0  1  0  0  0  0  0  0  0  0  0
    5.8756   -0.9075    2.5248 O   0  0  0  0  0  0  0  0  0  0  0  0
    3.7501   -2.0437    3.1033 C   0  0  1  0  0  0  0  0  0  0  0  0
    2.9839   -0.8680    2.8454 O   0  0  0  0  0  0  0  0  0  0  0  0
    1.3829   -5.8600    3.1083 C   0  0  1  0  0  0  0  0  0  0  0  0
    1.4149   -6.0434    1.5719 C   0  0  0  0  0  0  0  0  0  0  0  0
    0.6616   -7.0362    3.8923 C   0  0  1  0  0  0  0  0  0  0  0  0
    5.4000   -6.0083    2.7295 H   0  0  0  0  0  0  0  0  0  0  0  0
    4.1885   -6.4688    1.5197 H   0  0  0  0  0  0  0  0  0  0  0  0
    5.1882   -7.6862    2.3102 H   0  0  0  0  0  0  0  0  0  0  0  0
   -1.4265   -7.6395    2.2965 H   0  0  0  0  0  0  0  0  0  0  0  0
   -1.0090   -9.2353    1.7239 H   0  0  0  0  0  0  0  0  0  0  0  0
   -0.1774   -7.9059    1.0918 H   0  0  0  0  0  0  0  0  0  0  0  0
   -0.8643   -8.9949    4.8092 H   0  0  0  0  0  0  0  0  0  0  0  0
   -0.8061  -10.1572    3.5644 H   0  0  0  0  0  0  0  0  0  0  0  0
    0.1779  -10.9359    5.6387 H   0  0  0  0  0  0  0  0  0  0  0  0
    1.8452  -11.0922    3.4339 H   0  0  0  0  0  0  0  0  0  0  0  0
    1.4986   -9.6234    6.7277 H   0  0  0  0  0  0  0  0  0  0  0  0
    2.6079  -11.4018    6.3253 H   0  0  0  0  0  0  0  0  0  0  0  0
    4.1726   -8.6966    6.6762 H   0  0  0  0  0  0  0  0  0  0  0  0
    2.8800   -7.8402    7.5027 H   0  0  0  0  0  0  0  0  0  0  0  0
    3.9744   -7.0308    6.3974 H   0  0  0  0  0  0  0  0  0  0  0  0
    0.4669   -7.6222    5.9939 H   0  0  0  0  0  0  0  0  0  0  0  0
    1.7886   -4.2406    5.1386 H   0  0  0  0  0  0  0  0  0  0  0  0
    3.6828   -3.4871    5.9871 H   0  0  0  0  0  0  0  0  0  0  0  0
    4.5794   -4.9763    5.7227 H   0  0  0  0  0  0  0  0  0  0  0  0
    3.4933   -4.8154    7.1166 H   0  0  0  0  0  0  0  0  0  0  0  0
    1.8874   -3.1591    3.1797 H   0  0  0  0  0  0  0  0  0  0  0  0
    4.3126   -4.3171    0.8567 H   0  0  0  0  0  0  0  0  0  0  0  0
    2.7177   -4.3931   -1.0505 H   0  0  0  0  0  0  0  0  0  0  0  0
    2.9296   -2.6902   -1.3427 H   0  0  0  0  0  0  0  0  0  0  0  0
    4.2998   -4.4769   -2.4686 H   0  0  0  0  0  0  0  0  0  0  0  0
    5.7377   -2.4483    0.2638 H   0  0  0  0  0  0  0  0  0  0  0  0
    4.8564   -0.2756    0.4146 H   0  0  0  0  0  0  0  0  0  0  0  0
    5.6101   -2.9393    2.5886 H   0  0  0  0  0  0  0  0  0  0  0  0
    6.7167   -1.0071    2.0390 H   0  0  0  0  0  0  0  0  0  0  0  0
    3.9757   -2.0754    4.1672 H   0  0  0  0  0  0  0  0  0  0  0  0
    2.8731   -0.8344    1.8685 H   0  0  0  0  0  0  0  0  0  0  0  0
    0.7573   -4.9954    3.2864 H   0  0  0  0  0  0  0  0  0  0  0  0
    1.8105   -6.9995    1.2541 H   0  0  0  0  0  0  0  0  0  0  0  0
    2.0281   -5.3657    1.0394 H   0  0  0  0  0  0  0  0  0  0  0  0
    0.4155   -5.9247    1.1604 H   0  0  0  0  0  0  0  0  0  0  0  0
   -0.3471   -6.6611    4.0847 H   0  0  0  0  0  0  0  0  0  0  0  0
  1  2  1  0
  1 36  1  0
  1 37  1  0
  1 38  1  0
  2 20  1  0
  2  3  2  0
  3 14  1  0
  3  4  1  0
  4  5  2  0
  4  6  1  0
  6  7  1  0
  7 35  1  0
  7  8  1  6
  7  9  1  0
  8 39  1  0
  8 40  1  0
  8 41  1  0
  9 10  1  0
  9 42  1  0
  9 43  1  0
 10 11  1  0
 10 12  1  0
 10 44  1  1
 11 45  1  0
 12 13  1  0
 12 14  1  0
 12 46  1  1
 13 47  1  0
 14 15  1  1
 14 16  1  0
 15 48  1  0
 15 49  1  0
 15 50  1  0
 16 35  1  0
 16 17  1  0
 16 51  1  1
 17 18  1  0
 18 19  1  0
 18 20  1  0
 18 52  1  6
 19 53  1  0
 19 54  1  0
 19 55  1  0
 20 21  1  6
 20 33  1  0
 21 22  1  0
 22 31  1  0
 22 23  1  0
 22 56  1  1
 23 24  1  0
 24 25  1  0
 24 27  1  0
 24 57  1  1
 25 26  1  0
 25 58  1  0
 25 59  1  0
 26 60  1  0
 27 28  1  0
 27 29  1  0
 27 61  1  6
 28 62  1  0
 29 30  1  0
 29 31  1  0
 29 63  1  1
 30 64  1  0
 31 32  1  0
 31 65  1  1
 32 66  1  0
 33 34  1  0
 33 35  1  0
 33 67  1  6
 34 68  1  0
 34 69  1  0
 34 70  1  0
 35 71  1  1
M  END
>  <i_m_ct_stereo_status>  (42) 
1

>  <s_m_source_file>  (42) 
/var/tmp/pbs.5076255.sched01/tmp98udq4tg/0t315e5yz.sdf

>  <i_m_source_file_index>  (42) 
17

>  <i_lp_mmshare_version>  (42) 
48012

>  <i_f3d_flags>  (42) 
0

>  <s_epik_input>  (42) 
W0NIM11bQ0BdMTJbQ0BIXTNbQ0BIXTRbQ0BAXShbQ0gzXSkoW0NASF0oW09IXSlbQ0BASF0oW0NIMl0yKVtPSF0pQyhDKD1PKU8xKT1DKFtDSDNdKVtDQF0oW0NAQEhdKE80KVtDSDNdKShbQ0BIXTNbQ0gzXSlPW0NAQEhdNU9bQ0BASF0oW0NIMl1bT0hdKVtDQEBIXShbT0hdKVtDQEBIXShbT0hdKVtDQEhdNVtPSF0=

>  <s_epik_cmdline>  (42) 
J2VwaWtfcHl0aG9uJywgJy1waHQnLCAnMi4wJywgJy1waCcsICc3LjAnLCAnLXRuJywgJzgnLCAnLW1hJywgJzIwMCcsICctaW1hZScsICc8aW5maWxlLm1hZT4nLCAnLW9tYWUnLCAnPG91dGZpbGUubWFlPic=

>  <r_lp_tautomer_probability>  (42) 
1

>  <r_epik_Ionization_Penalty>  (42) 
4.84667e-06

>  <r_epik_Ionization_Penalty_Charging>  (42) 
0

>  <r_epik_Ionization_Penalty_Neutral>  (42) 
4.84667e-06

>  <r_epik_State_Penalty>  (42) 
-0

>  <r_epik_Charging_Adjusted_Penalty>  (42) 
0

>  <i_epik_Tot_Q>  (42) 
0

>  <i_epik_Tot_abs_Q>  (42) 
0

>  <s_epik_Chemistry_Notes>  (42) 
This compound has an ester and may undergo hydrolysis at high or low pH. This compound contains an acetal/aminal-like group ( X-CH(R)-Y where X, Y are N, S, or O) that may be acid/base labile, releasing an aldehyde.

>  <s_lp_Force_Field>  (42) 
OPLS3e

>  <r_lp_Energy>  (42) 
124.011

>  <b_lp_Chiralities_Consistent>  (42) 
1

>  <s_lp_Variant>  (42) 
14:0-1

>  <s_i_glide_gridfile>  (42) 
pfpi4k_grid

>  <i_i_glide_lignum>  (42) 
17

>  <i_i_glide_rotatable_bonds>  (42) 
9

>  <r_i_docking_score>  (42) 
-2.4033

>  <r_i_glide_ligand_efficiency>  (42) 
-0.0686657

>  <r_i_glide_ligand_efficiency_sa>  (42) 
-0.22461

>  <r_i_glide_ligand_efficiency_ln>  (42) 
-0.527578

>  <r_i_glide_gscore>  (42) 
-2.4033

>  <r_i_glide_lipo>  (42) 
-0.115526

>  <r_i_glide_hbond>  (42) 
0

>  <r_i_glide_metal>  (42) 
-0

>  <r_i_glide_rewards>  (42) 
-0.5

>  <r_i_glide_evdw>  (42) 
-26.3435

>  <r_i_glide_ecoul>  (42) 
-4.69659

>  <r_i_glide_erotb>  (42) 
0.244519

>  <r_i_glide_esite>  (42) 
-0.0106302

>  <r_i_glide_emodel>  (42) 
-38.7106

>  <r_i_glide_energy>  (42) 
-31.0401

>  <r_i_glide_einternal>  (42) 
3.11431

>  <r_i_glide_intrahb_reward>  (42) 
-0.5

>  <i_i_glide_confnum>  (42) 
1

>  <i_i_glide_posenum>  (42) 
37

>  <r_i_glide_eff_state_penalty>  (42) 
0

>  <ligand_id>  (42) 
14

>  <original_smiles>  (42) 
CC1=C2C(=O)OC3(C)CC(O)C(O)C2(C)C2OC(C)C1(OC1OC(CO)C(O)C(O)C1O)C(C)C23

>  <smiles>  (42) 
[H]OC([H])([H])C1([H])OC([H])(OC23C(C([H])([H])[H])=C4C(=O)OC5(C([H])([H])[H])C([H])([H])C([H])(O[H])C([H])(O[H])C4(C([H])([H])[H])C([H])(OC2([H])C([H])([H])[H])C5([H])C3([H])C([H])([H])[H])C([H])(O[H])C([H])(O[H])C1([H])O[H]

$$$$
15:1:0
     RDKit          3D

 49 54  0  0  1  0  0  0  0  0999 V2000
    8.7727   -1.8192    0.2714 C   0  0  0  0  0  0  0  0  0  0  0  0
    7.4058   -1.8129    0.9501 C   0  0  0  0  0  0  0  0  0  0  0  0
    6.2058   -1.7305   -0.0225 C   0  0  2  0  0  0  0  0  0  0  0  0
    5.0167   -0.7091    0.6529 C   0  0  0  0  0  0  0  0  0  0  0  0
    5.2546    0.1163    1.5129 O   0  0  0  0  0  0  0  0  0  0  0  0
    3.4049   -1.1750    0.2172 C   0  0  1  0  0  0  0  0  0  0  0  0
    2.5535   -0.2694    0.8714 O   0  0  0  0  0  0  0  0  0  0  0  0
    3.2699   -1.3114   -1.2991 C   0  0  2  0  0  0  0  0  0  0  0  0
    4.2876   -2.1740   -0.8473 O   0  0  0  0  0  0  0  0  0  0  0  0
    4.7663   -3.1429    0.4988 C   0  0  2  0  0  0  0  0  0  0  0  0
    4.1198   -4.4994    1.0281 C   0  0  2  0  0  0  0  0  0  0  0  0
    3.0654   -5.2073    0.2592 C   0  0  0  0  0  0  0  0  0  0  0  0
    2.8285   -4.0717   -0.6903 C   0  0  1  0  0  0  0  0  0  0  0  0
    2.6308   -2.7378    0.4448 C   0  0  1  0  0  0  0  0  0  0  0  0
    3.5416   -3.2486    1.3648 C   0  0  2  0  0  0  0  0  0  0  0  0
    4.3332   -4.1437   -1.5840 C   0  0  1  0  0  0  0  0  0  0  0  0
    4.1331   -3.2445   -2.8923 C   0  0  1  0  0  0  0  0  0  0  0  0
    2.9869   -3.6326   -3.6339 O   0  0  0  0  0  0  0  0  0  0  0  0
    4.1079   -1.6363   -2.6005 C   0  0  1  0  0  0  0  0  0  0  0  0
    3.5854   -0.8425   -3.7435 N   0  0  0  0  0  0  0  0  0  0  0  0
    3.8446    0.5445   -3.6443 C   0  0  0  0  0  0  0  0  0  0  0  0
    4.1972   -1.1913   -4.9659 C   0  0  0  0  0  0  0  0  0  0  0  0
    5.5882   -3.3363   -0.5948 C   0  0  1  0  0  0  0  0  0  0  0  0
    6.5930   -4.2613   -0.2888 O   0  0  0  0  0  0  0  0  0  0  0  0
    9.5899   -1.9122    0.9866 H   0  0  0  0  0  0  0  0  0  0  0  0
    8.9885   -0.8932   -0.2508 H   0  0  0  0  0  0  0  0  0  0  0  0
    8.8675   -2.6342   -0.4360 H   0  0  0  0  0  0  0  0  0  0  0  0
    7.3047   -2.6979    1.5812 H   0  0  0  0  0  0  0  0  0  0  0  0
    7.4025   -0.9839    1.6509 H   0  0  0  0  0  0  0  0  0  0  0  0
    6.5524   -1.1622   -0.8818 H   0  0  0  0  0  0  0  0  0  0  0  0
    1.7598   -0.2902    0.3328 H   0  0  0  0  0  0  0  0  0  0  0  0
    2.3756   -1.8430   -1.6073 H   0  0  0  0  0  0  0  0  0  0  0  0
    4.6903   -5.0441    1.7542 H   0  0  0  0  0  0  0  0  0  0  0  0
    3.4397   -6.1184   -0.2075 H   0  0  0  0  0  0  0  0  0  0  0  0
    2.2206   -5.4299    0.9155 H   0  0  0  0  0  0  0  0  0  0  0  0
    1.9353   -4.2391   -1.2834 H   0  0  0  0  0  0  0  0  0  0  0  0
    1.6603   -2.6420    0.9121 H   0  0  0  0  0  0  0  0  0  0  0  0
    3.5962   -2.8516    2.3649 H   0  0  0  0  0  0  0  0  0  0  0  0
    4.7110   -5.0993   -1.8399 H   0  0  0  0  0  0  0  0  0  0  0  0
    4.9829   -3.4593   -3.5212 H   0  0  0  0  0  0  0  0  0  0  0  0
    2.2160   -3.5758   -3.0932 H   0  0  0  0  0  0  0  0  0  0  0  0
    5.1512   -1.3338   -2.4971 H   0  0  0  0  0  0  0  0  0  0  0  0
    3.4362    1.1371   -4.4468 H   0  0  0  0  0  0  0  0  0  0  0  0
    4.8331    0.8021   -3.3547 H   0  0  0  0  0  0  0  0  0  0  0  0
    3.3951    0.8401   -2.7477 H   0  0  0  0  0  0  0  0  0  0  0  0
    3.7834   -0.6555   -5.8338 H   0  0  0  0  0  0  0  0  0  0  0  0
    4.0183   -2.2316   -5.0577 H   0  0  0  0  0  0  0  0  0  0  0  0
    5.2570   -1.0104   -4.9017 H   0  0  0  0  0  0  0  0  0  0  0  0
    6.2565   -5.1011   -0.5406 H   0  0  0  0  0  0  0  0  0  0  0  0
  1  2  1  0
  1 25  1  0
  1 26  1  0
  1 27  1  0
  2  3  1  0
  2 28  1  0
  2 29  1  0
  3 23  1  0
  3  4  1  0
  3 30  1  6
  4  5  2  0
  4  6  1  0
  6 14  1  0
  6  7  1  1
  6  8  1  0
  7 31  1  0
  8 19  1  0
  8  9  1  0
  8 32  1  6
 10  9  1  1
 10 15  1  0
 10 23  1  0
 10 11  1  0
 11 15  1  0
 11 12  1  0
 11 33  1  1
 12 13  1  0
 12 34  1  0
 12 35  1  0
 13 14  1  0
 13 16  1  0
 13 36  1  6
 14 15  1  0
 14 37  1  1
 15 38  1  1
 16 17  1  0
 16 23  1  0
 16 39  1  6
 17 18  1  0
 17 19  1  0
 17 40  1  6
 18 41  1  0
 19 20  1  0
 19 42  1  1
 20 21  1  0
 20 22  1  0
 21 43  1  0
 21 44  1  0
 21 45  1  0
 22 46  1  0
 22 47  1  0
 22 48  1  0
 23 24  1  1
 24 49  1  0
M  END
>  <i_m_ct_stereo_status>  (43) 
1

>  <s_m_source_file>  (43) 
/var/tmp/pbs.5076255.sched01/tmp98udq4tg/0t315e5yz.sdf

>  <i_m_source_file_index>  (43) 
19

>  <i_lp_mmshare_version>  (43) 
48012

>  <i_f3d_flags>  (43) 
2

>  <s_epik_input>  (43) 
W0NIM11bQ0gyXVtDQEhdKEMxPU8pW0NAXTIoW09IXSlbQ0BASF0oW0NASF0zW0NIMl00KVtDQEBIXShbT0hdKVtDQEBIXShOKFtDSDNdKVtDSDNdKVtDQEBIXShPNSlbQ0BAXTEoW09IXSlbQ0BASF0zW0NASF02W0NAQEhdNEMyNTY=

>  <s_epik_cmdline>  (43) 
J2VwaWtfcHl0aG9uJywgJy1waHQnLCAnMi4wJywgJy1waCcsICc3LjAnLCAnLXRuJywgJzgnLCAnLW1hJywgJzIwMCcsICctaW1hZScsICc8aW5maWxlLm1hZT4nLCAnLW9tYWUnLCAnPG91dGZpbGUubWFlPic=

>  <r_lp_tautomer_probability>  (43) 
0.99995

>  <r_epik_Ionization_Penalty>  (43) 
2.26028

>  <r_epik_Ionization_Penalty_Charging>  (43) 
0

>  <r_epik_Ionization_Penalty_Neutral>  (43) 
2.26028

>  <r_epik_State_Penalty>  (43) 
2.40807

>  <r_epik_Charging_Adjusted_Penalty>  (43) 
2.40807

>  <i_epik_Tot_Q>  (43) 
0

>  <i_epik_Tot_abs_Q>  (43) 
0

>  <s_lp_Force_Field>  (43) 
OPLS3e

>  <r_lp_Energy>  (43) 
706.46

>  <b_lp_Chiralities_Consistent>  (43) 
0

>  <s_lp_Variant>  (43) 
15:0-2

>  <s_i_glide_gridfile>  (43) 
pfpi4k_grid

>  <i_i_glide_lignum>  (43) 
19

>  <i_i_glide_rotatable_bonds>  (43) 
5

>  <r_i_docking_score>  (43) 
-2.43242

>  <r_i_glide_ligand_efficiency>  (43) 
-0.101351

>  <r_i_glide_ligand_efficiency_sa>  (43) 
-0.292346

>  <r_i_glide_ligand_efficiency_ln>  (43) 
-0.58219

>  <r_i_glide_gscore>  (43) 
-2.43242

>  <r_i_glide_lipo>  (43) 
-0.114849

>  <r_i_glide_hbond>  (43) 
-0.204888

>  <r_i_glide_metal>  (43) 
-0

>  <r_i_glide_rewards>  (43) 
-1.30906

>  <r_i_glide_evdw>  (43) 
-1.141

>  <r_i_glide_ecoul>  (43) 
-4.97715

>  <r_i_glide_erotb>  (43) 
0

>  <r_i_glide_esite>  (43) 
0

>  <r_i_glide_emodel>  (43) 
-8.69714

>  <r_i_glide_energy>  (43) 
-6.11815

>  <r_i_glide_einternal>  (43) 
3.36588

>  <r_i_glide_intrahb_reward>  (43) 
-0

>  <i_i_glide_confnum>  (43) 
2

>  <i_i_glide_posenum>  (43) 
3

>  <r_i_glide_eff_state_penalty>  (43) 
0

>  <ligand_id>  (43) 
15

>  <original_smiles>  (43) 
CCC1C(=O)C2(O)C3OC45C6CC(C2C64)C(C(O)C3N(C)C)C15O

>  <smiles>  (43) 
[H]OC1([H])C([H])(N(C([H])([H])[H])C([H])([H])[H])C2([H])OC34C5([H])C([H])([H])C6([H])C([H])(C2(O[H])C(=O)C([H])(C([H])([H])C([H])([H])[H])C3(O[H])C16[H])C54[H]

$$$$
16:0:0
     RDKit          3D

 37 42  0  0  1  0  0  0  0  0999 V2000
    4.8135   -0.2265    0.8076 C   0  0  0  0  0  0  0  0  0  0  0  0
    4.6592   -1.6796    0.3365 C   0  0  1  0  0  0  0  0  0  0  0  0
    5.7054   -2.4585    0.9039 O   0  0  0  0  0  0  0  0  0  0  0  0
    5.6313   -3.0407    2.1954 C   0  0  1  0  0  0  0  0  0  0  0  0
    4.9223   -2.2906    3.3333 C   0  0  0  0  0  0  0  0  0  0  0  0
    3.6559   -3.0553    2.9316 C   0  0  1  0  0  0  0  0  0  0  0  0
    2.6892   -2.3685    1.9828 C   0  0  0  0  0  0  0  0  0  0  0  0
    3.2196   -2.2419    0.5524 C   0  0  2  0  0  0  0  0  0  0  0  0
    2.9236   -3.4259   -0.4064 C   0  0  1  0  0  0  0  0  0  0  0  0
    3.6601   -3.1614   -1.7405 C   0  0  2  0  0  0  0  0  0  0  0  0
    5.1782   -3.2185   -1.7458 C   0  0  0  0  0  0  0  0  0  0  0  0
    5.0162   -1.8101   -1.1698 C   0  0  1  0  0  0  0  0  0  0  0  0
    3.7767   -1.7274   -1.9230 O   0  0  0  0  0  0  0  0  0  0  0  0
    3.3151   -4.8245    0.1183 C   0  0  2  0  0  0  0  0  0  0  0  0
    2.2784   -5.5884    0.9795 C   0  0  0  0  0  0  0  0  0  0  0  0
    1.0959   -5.8857    0.8977 O   0  0  0  0  0  0  0  0  0  0  0  0
    3.2253   -6.0447    1.8500 O   0  0  0  0  0  0  0  0  0  0  0  0
    4.2225   -5.1311    1.2960 C   0  0  2  0  0  0  0  0  0  0  0  0
    4.5965   -4.1377    2.3964 C   0  0  1  0  0  0  0  0  0  0  0  0
    4.4415    0.4818    0.0740 H   0  0  0  0  0  0  0  0  0  0  0  0
    5.8608    0.0139    0.9942 H   0  0  0  0  0  0  0  0  0  0  0  0
    4.2468   -0.0011    1.7019 H   0  0  0  0  0  0  0  0  0  0  0  0
    6.6088   -3.3969    2.4749 H   0  0  0  0  0  0  0  0  0  0  0  0
    5.2806   -2.6040    4.3219 H   0  0  0  0  0  0  0  0  0  0  0  0
    4.8656   -1.2087    3.2636 H   0  0  0  0  0  0  0  0  0  0  0  0
    3.1561   -3.4165    3.8287 H   0  0  0  0  0  0  0  0  0  0  0  0
    1.7432   -2.9028    1.9663 H   0  0  0  0  0  0  0  0  0  0  0  0
    2.4506   -1.3743    2.3662 H   0  0  0  0  0  0  0  0  0  0  0  0
    2.6147   -1.4381    0.1645 H   0  0  0  0  0  0  0  0  0  0  0  0
    1.8466   -3.3945   -0.6003 H   0  0  0  0  0  0  0  0  0  0  0  0
    3.2459   -3.6610   -2.6075 H   0  0  0  0  0  0  0  0  0  0  0  0
    5.6142   -3.9510   -1.0718 H   0  0  0  0  0  0  0  0  0  0  0  0
    5.6119   -3.2468   -2.7509 H   0  0  0  0  0  0  0  0  0  0  0  0
    5.7861   -1.1414   -1.5550 H   0  0  0  0  0  0  0  0  0  0  0  0
    3.6090   -5.5000   -0.6774 H   0  0  0  0  0  0  0  0  0  0  0  0
    5.0958   -5.6527    0.9179 H   0  0  0  0  0  0  0  0  0  0  0  0
    4.9355   -4.7346    3.2474 H   0  0  0  0  0  0  0  0  0  0  0  0
  2  1  1  1
  1 20  1  0
  1 21  1  0
  1 22  1  0
  2  8  1  0
  2 12  1  0
  2  3  1  0
  3  4  1  0
  4 19  1  0
  4  5  1  0
  4 23  1  1
  5  6  1  0
  5 24  1  0
  5 25  1  0
  6 19  1  0
  6  7  1  0
  6 26  1  1
  7  8  1  0
  7 27  1  0
  7 28  1  0
  8  9  1  0
  8 29  1  6
  9 10  1  0
  9 14  1  0
  9 30  1  6
 10 13  1  0
 10 11  1  0
 10 31  1  6
 11 12  1  0
 11 32  1  0
 11 33  1  0
 12 13  1  0
 12 34  1  6
 14 18  1  0
 14 15  1  0
 14 35  1  6
 15 16  2  0
 15 17  1  0
 17 18  1  0
 18 19  1  0
 18 36  1  6
 19 37  1  1
M  END
>  <i_m_ct_stereo_status>  (44) 
1

>  <s_m_source_file>  (44) 
/var/tmp/pbs.5076255.sched01/tmp98udq4tg/0t315e5yz.sdf

>  <i_m_source_file_index>  (44) 
20

>  <i_lp_mmshare_version>  (44) 
48012

>  <i_f3d_flags>  (44) 
0

>  <s_epik_input>  (44) 
TzFbQ0BASF0yW0NIMl1bQ0BIXTFbQ0BIXShbQ0hdM1tDQF0yNFtDSDNdKVtDQEhdNVtDQEhdKE9DNT1PKVtDQEhdNltDQEBIXShPNClbQ0gyXVtDQEhdNltDSDJdMw==

>  <s_epik_cmdline>  (44) 
J2VwaWtfcHl0aG9uJywgJy1waHQnLCAnMi4wJywgJy1waCcsICc3LjAnLCAnLXRuJywgJzgnLCAnLW1hJywgJzIwMCcsICctaW1hZScsICc8aW5maWxlLm1hZT4nLCAnLW9tYWUnLCAnPG91dGZpbGUubWFlPic=

>  <r_lp_tautomer_probability>  (44) 
1

>  <r_epik_Ionization_Penalty>  (44) 
6.39755e-12

>  <r_epik_Ionization_Penalty_Charging>  (44) 
0

>  <r_epik_Ionization_Penalty_Neutral>  (44) 
6.39755e-12

>  <r_epik_State_Penalty>  (44) 
-0

>  <r_epik_Charging_Adjusted_Penalty>  (44) 
0

>  <i_epik_Tot_Q>  (44) 
0

>  <i_epik_Tot_abs_Q>  (44) 
0

>  <s_epik_Chemistry_Notes>  (44) 
This compound has an ester and may undergo hydrolysis at high or low pH.

>  <s_lp_Force_Field>  (44) 
OPLS3e

>  <r_lp_Energy>  (44) 
69.7756

>  <b_lp_Chiralities_Consistent>  (44) 
1

>  <s_lp_Variant>  (44) 
16:0-1

>  <s_i_glide_gridfile>  (44) 
pfpi4k_grid

>  <i_i_glide_lignum>  (44) 
20

>  <i_i_glide_rotatable_bonds>  (44) 
0

>  <r_i_docking_score>  (44) 
-3.79113

>  <r_i_glide_ligand_efficiency>  (44) 
-0.199533

>  <r_i_glide_ligand_efficiency_sa>  (44) 
-0.532434

>  <r_i_glide_ligand_efficiency_ln>  (44) 
-0.961132

>  <r_i_glide_gscore>  (44) 
-3.79113

>  <r_i_glide_lipo>  (44) 
-0.368846

>  <r_i_glide_hbond>  (44) 
-0.16

>  <r_i_glide_metal>  (44) 
-0

>  <r_i_glide_rewards>  (44) 
-1.62067

>  <r_i_glide_evdw>  (44) 
-17.0847

>  <r_i_glide_ecoul>  (44) 
-4.98237

>  <r_i_glide_erotb>  (44) 
0

>  <r_i_glide_esite>  (44) 
-0.0400142

>  <r_i_glide_emodel>  (44) 
-26.2872

>  <r_i_glide_energy>  (44) 
-22.0671

>  <r_i_glide_einternal>  (44) 
0

>  <r_i_glide_intrahb_reward>  (44) 
-0

>  <i_i_glide_confnum>  (44) 
2

>  <i_i_glide_posenum>  (44) 
1

>  <r_i_glide_eff_state_penalty>  (44) 
0

>  <ligand_id>  (44) 
16

>  <original_smiles>  (44) 
CC12OC3CC4CC1C(C1CC2O1)C1C(=O)OC1C43

>  <smiles>  (44) 
[H]C([H])([H])C12OC3([H])C([H])([H])C4([H])C([H])([H])C1([H])C([H])(C1([H])OC2([H])C1([H])[H])C1([H])C(=O)OC1([H])C34[H]

$$$$
16:0:1
     RDKit          3D

 37 42  0  0  1  0  0  0  0  0999 V2000
    5.9442   -3.4454   -2.7834 C   0  0  0  0  0  0  0  0  0  0  0  0
    6.2430   -2.9383   -1.3672 C   0  0  1  0  0  0  0  0  0  0  0  0
    5.9963   -1.5264   -1.3366 O   0  0  0  0  0  0  0  0  0  0  0  0
    4.6961   -0.9730   -1.1401 C   0  0  1  0  0  0  0  0  0  0  0  0
    3.4751   -1.6973   -1.7021 C   0  0  0  0  0  0  0  0  0  0  0  0
    3.3851   -2.4167   -0.3515 C   0  0  1  0  0  0  0  0  0  0  0  0
    3.9958   -3.7911   -0.2456 C   0  0  0  0  0  0  0  0  0  0  0  0
    5.5269   -3.7806   -0.2727 C   0  0  2  0  0  0  0  0  0  0  0  0
    6.2355   -3.6413    1.1037 C   0  0  1  0  0  0  0  0  0  0  0  0
    7.7531   -3.4928    0.8563 C   0  0  2  0  0  0  0  0  0  0  0  0
    8.2508   -2.2227    0.1791 C   0  0  0  0  0  0  0  0  0  0  0  0
    7.7695   -2.9624   -1.0694 C   0  0  1  0  0  0  0  0  0  0  0  0
    8.0844   -4.1940   -0.3533 O   0  0  0  0  0  0  0  0  0  0  0  0
    5.7728   -2.4621    1.9780 C   0  0  2  0  0  0  0  0  0  0  0  0
    4.5470   -2.7101    2.8793 C   0  0  0  0  0  0  0  0  0  0  0  0
    4.1737   -3.5961    3.6383 O   0  0  0  0  0  0  0  0  0  0  0  0
    4.0242   -1.4758    2.6456 O   0  0  0  0  0  0  0  0  0  0  0  0
    4.9441   -1.2651    1.5346 C   0  0  2  0  0  0  0  0  0  0  0  0
    4.0979   -1.2015    0.2484 C   0  0  1  0  0  0  0  0  0  0  0  0
    6.6104   -4.2505   -3.0449 H   0  0  0  0  0  0  0  0  0  0  0  0
    6.1133   -2.6615   -3.5149 H   0  0  0  0  0  0  0  0  0  0  0  0
    4.9419   -3.8443   -2.9193 H   0  0  0  0  0  0  0  0  0  0  0  0
    4.6485    0.0790   -1.4241 H   0  0  0  0  0  0  0  0  0  0  0  0
    2.6706   -0.9791   -1.8738 H   0  0  0  0  0  0  0  0  0  0  0  0
    3.6128   -2.3167   -2.5827 H   0  0  0  0  0  0  0  0  0  0  0  0
    2.3502   -2.4163   -0.0188 H   0  0  0  0  0  0  0  0  0  0  0  0
    3.6475   -4.2984    0.6511 H   0  0  0  0  0  0  0  0  0  0  0  0
    3.6323   -4.4001   -1.0739 H   0  0  0  0  0  0  0  0  0  0  0  0
    5.7471   -4.8097   -0.5560 H   0  0  0  0  0  0  0  0  0  0  0  0
    6.0589   -4.5761    1.6375 H   0  0  0  0  0  0  0  0  0  0  0  0
    8.3958   -3.8044    1.6808 H   0  0  0  0  0  0  0  0  0  0  0  0
    7.7026   -1.3171    0.4337 H   0  0  0  0  0  0  0  0  0  0  0  0
    9.3315   -2.0887    0.2246 H   0  0  0  0  0  0  0  0  0  0  0  0
    8.4348   -2.7704   -1.9132 H   0  0  0  0  0  0  0  0  0  0  0  0
    6.5762   -2.0877    2.6107 H   0  0  0  0  0  0  0  0  0  0  0  0
    5.5347   -0.3550    1.6642 H   0  0  0  0  0  0  0  0  0  0  0  0
    3.3523   -0.4201    0.4053 H   0  0  0  0  0  0  0  0  0  0  0  0
  2  1  1  6
  1 20  1  0
  1 21  1  0
  1 22  1  0
  2  8  1  0
  2 12  1  0
  2  3  1  0
  3  4  1  0
  4 19  1  0
  4  5  1  0
  4 23  1  6
  5  6  1  0
  5 24  1  0
  5 25  1  0
  6 19  1  0
  6  7  1  0
  6 26  1  1
  7  8  1  0
  7 27  1  0
  7 28  1  0
  8  9  1  0
  8 29  1  6
  9 10  1  0
  9 14  1  0
  9 30  1  1
 10 13  1  0
 10 11  1  0
 10 31  1  1
 11 12  1  0
 11 32  1  0
 11 33  1  0
 12 13  1  0
 12 34  1  6
 14 18  1  0
 14 15  1  0
 14 35  1  1
 15 16  2  0
 15 17  1  0
 17 18  1  0
 18 19  1  0
 18 36  1  1
 19 37  1  1
M  END
>  <i_m_ct_stereo_status>  (45) 
1

>  <s_m_source_file>  (45) 
/var/tmp/pbs.5076255.sched01/tmp98udq4tg/0t315e5yz.sdf

>  <i_m_source_file_index>  (45) 
20

>  <i_lp_mmshare_version>  (45) 
48012

>  <i_f3d_flags>  (45) 
0

>  <s_epik_input>  (45) 
TzFbQ0BASF0yW0NIMl1bQ0BIXTFbQ0BIXShbQ0hdM1tDQF0yNFtDSDNdKVtDQEhdNVtDQEhdKE9DNT1PKVtDQEhdNltDQEBIXShPNClbQ0gyXVtDQEhdNltDSDJdMw==

>  <s_epik_cmdline>  (45) 
J2VwaWtfcHl0aG9uJywgJy1waHQnLCAnMi4wJywgJy1waCcsICc3LjAnLCAnLXRuJywgJzgnLCAnLW1hJywgJzIwMCcsICctaW1hZScsICc8aW5maWxlLm1hZT4nLCAnLW9tYWUnLCAnPG91dGZpbGUubWFlPic=

>  <r_lp_tautomer_probability>  (45) 
1

>  <r_epik_Ionization_Penalty>  (45) 
6.39755e-12

>  <r_epik_Ionization_Penalty_Charging>  (45) 
0

>  <r_epik_Ionization_Penalty_Neutral>  (45) 
6.39755e-12

>  <r_epik_State_Penalty>  (45) 
-0

>  <r_epik_Charging_Adjusted_Penalty>  (45) 
0

>  <i_epik_Tot_Q>  (45) 
0

>  <i_epik_Tot_abs_Q>  (45) 
0

>  <s_epik_Chemistry_Notes>  (45) 
This compound has an ester and may undergo hydrolysis at high or low pH.

>  <s_lp_Force_Field>  (45) 
OPLS3e

>  <r_lp_Energy>  (45) 
69.7756

>  <b_lp_Chiralities_Consistent>  (45) 
1

>  <s_lp_Variant>  (45) 
16:0-1

>  <s_i_glide_gridfile>  (45) 
pfpi4k_grid

>  <i_i_glide_lignum>  (45) 
20

>  <i_i_glide_rotatable_bonds>  (45) 
0

>  <r_i_docking_score>  (45) 
-3.7765

>  <r_i_glide_ligand_efficiency>  (45) 
-0.198763

>  <r_i_glide_ligand_efficiency_sa>  (45) 
-0.53038

>  <r_i_glide_ligand_efficiency_ln>  (45) 
-0.957424

>  <r_i_glide_gscore>  (45) 
-3.7765

>  <r_i_glide_lipo>  (45) 
-0.717336

>  <r_i_glide_hbond>  (45) 
-0.111913

>  <r_i_glide_metal>  (45) 
-0

>  <r_i_glide_rewards>  (45) 
-1.65581

>  <r_i_glide_evdw>  (45) 
-16.2245

>  <r_i_glide_ecoul>  (45) 
-3.20141

>  <r_i_glide_erotb>  (45) 
0

>  <r_i_glide_esite>  (45) 
0

>  <r_i_glide_emodel>  (45) 
-23.5906

>  <r_i_glide_energy>  (45) 
-19.4259

>  <r_i_glide_einternal>  (45) 
0

>  <r_i_glide_intrahb_reward>  (45) 
-0

>  <i_i_glide_confnum>  (45) 
1

>  <i_i_glide_posenum>  (45) 
2

>  <r_i_glide_eff_state_penalty>  (45) 
0

>  <ligand_id>  (45) 
16

>  <original_smiles>  (45) 
CC12OC3CC4CC1C(C1CC2O1)C1C(=O)OC1C43

>  <smiles>  (45) 
[H]C([H])([H])C12OC3([H])C([H])([H])C4([H])C([H])([H])C1([H])C([H])(C1([H])OC2([H])C1([H])[H])C1([H])C(=O)OC1([H])C34[H]

$$$$
16:0:2
     RDKit          3D

 37 42  0  0  1  0  0  0  0  0999 V2000
    5.4428   -0.6536    2.8438 C   0  0  0  0  0  0  0  0  0  0  0  0
    5.2808   -1.7875    1.8157 C   0  0  1  0  0  0  0  0  0  0  0  0
    5.4397   -3.0481    2.4747 O   0  0  0  0  0  0  0  0  0  0  0  0
    4.3887   -3.7514    3.1343 C   0  0  1  0  0  0  0  0  0  0  0  0
    3.3086   -2.9495    3.8728 C   0  0  0  0  0  0  0  0  0  0  0  0
    2.5139   -2.9664    2.5643 C   0  0  1  0  0  0  0  0  0  0  0  0
    2.6300   -1.7670    1.6512 C   0  0  0  0  0  0  0  0  0  0  0  0
    3.9880   -1.6452    0.9522 C   0  0  2  0  0  0  0  0  0  0  0  0
    4.1319   -2.3758   -0.4149 C   0  0  1  0  0  0  0  0  0  0  0  0
    5.6027   -2.2739   -0.8716 C   0  0  2  0  0  0  0  0  0  0  0  0
    6.6597   -3.0245   -0.0750 C   0  0  0  0  0  0  0  0  0  0  0  0
    6.4984   -1.8178    0.8523 C   0  0  1  0  0  0  0  0  0  0  0  0
    6.1553   -1.0496   -0.3295 O   0  0  0  0  0  0  0  0  0  0  0  0
    3.7395   -3.8602   -0.4380 C   0  0  2  0  0  0  0  0  0  0  0  0
    2.2685   -4.1557   -0.6901 C   0  0  0  0  0  0  0  0  0  0  0  0
    1.4238   -3.8216   -1.5282 O   0  0  0  0  0  0  0  0  0  0  0  0
    2.1995   -5.1306    0.2550 O   0  0  0  0  0  0  0  0  0  0  0  0
    3.5034   -4.7400    0.7830 C   0  0  2  0  0  0  0  0  0  0  0  0
    3.2678   -4.2538    2.2272 C   0  0  1  0  0  0  0  0  0  0  0  0
    5.8896    0.2285    2.3957 H   0  0  0  0  0  0  0  0  0  0  0  0
    6.0924   -0.9588    3.6599 H   0  0  0  0  0  0  0  0  0  0  0  0
    4.5031   -0.3310    3.2794 H   0  0  0  0  0  0  0  0  0  0  0  0
    4.7877   -4.5437    3.7677 H   0  0  0  0  0  0  0  0  0  0  0  0
    2.8192   -3.5419    4.6540 H   0  0  0  0  0  0  0  0  0  0  0  0
    3.5910   -1.9653    4.2457 H   0  0  0  0  0  0  0  0  0  0  0  0
    1.4754   -3.1994    2.7906 H   0  0  0  0  0  0  0  0  0  0  0  0
    1.8440   -1.7982    0.8971 H   0  0  0  0  0  0  0  0  0  0  0  0
    2.4372   -0.8537    2.2206 H   0  0  0  0  0  0  0  0  0  0  0  0
    3.9905   -0.5927    0.6595 H   0  0  0  0  0  0  0  0  0  0  0  0
    3.5015   -1.8299   -1.1239 H   0  0  0  0  0  0  0  0  0  0  0  0
    5.7646   -2.3766   -1.9450 H   0  0  0  0  0  0  0  0  0  0  0  0
    6.3382   -3.9761    0.3445 H   0  0  0  0  0  0  0  0  0  0  0  0
    7.6256   -3.0803   -0.5745 H   0  0  0  0  0  0  0  0  0  0  0  0
    7.4524   -1.5162    1.2802 H   0  0  0  0  0  0  0  0  0  0  0  0
    4.3036   -4.4247   -1.1893 H   0  0  0  0  0  0  0  0  0  0  0  0
    4.2134   -5.5724    0.7600 H   0  0  0  0  0  0  0  0  0  0  0  0
    2.7831   -5.0764    2.7585 H   0  0  0  0  0  0  0  0  0  0  0  0
  2  1  1  1
  1 20  1  0
  1 21  1  0
  1 22  1  0
  2  8  1  0
  2 12  1  0
  2  3  1  0
  3  4  1  0
  4 19  1  0
  4  5  1  0
  4 23  1  1
  5  6  1  0
  5 24  1  0
  5 25  1  0
  6 19  1  0
  6  7  1  0
  6 26  1  1
  7  8  1  0
  7 27  1  0
  7 28  1  0
  8  9  1  0
  8 29  1  6
  9 10  1  0
  9 14  1  0
  9 30  1  6
 10 13  1  0
 10 11  1  0
 10 31  1  6
 11 12  1  0
 11 32  1  0
 11 33  1  0
 12 13  1  0
 12 34  1  1
 14 18  1  0
 14 15  1  0
 14 35  1  6
 15 16  2  0
 15 17  1  0
 17 18  1  0
 18 19  1  0
 18 36  1  1
 19 37  1  1
M  END
>  <i_m_ct_stereo_status>  (46) 
1

>  <s_m_source_file>  (46) 
/var/tmp/pbs.5076255.sched01/tmp98udq4tg/0t315e5yz.sdf

>  <i_m_source_file_index>  (46) 
20

>  <i_lp_mmshare_version>  (46) 
48012

>  <i_f3d_flags>  (46) 
0

>  <s_epik_input>  (46) 
TzFbQ0BASF0yW0NIMl1bQ0BIXTFbQ0BIXShbQ0hdM1tDQF0yNFtDSDNdKVtDQEhdNVtDQEhdKE9DNT1PKVtDQEhdNltDQEBIXShPNClbQ0gyXVtDQEhdNltDSDJdMw==

>  <s_epik_cmdline>  (46) 
J2VwaWtfcHl0aG9uJywgJy1waHQnLCAnMi4wJywgJy1waCcsICc3LjAnLCAnLXRuJywgJzgnLCAnLW1hJywgJzIwMCcsICctaW1hZScsICc8aW5maWxlLm1hZT4nLCAnLW9tYWUnLCAnPG91dGZpbGUubWFlPic=

>  <r_lp_tautomer_probability>  (46) 
1

>  <r_epik_Ionization_Penalty>  (46) 
6.39755e-12

>  <r_epik_Ionization_Penalty_Charging>  (46) 
0

>  <r_epik_Ionization_Penalty_Neutral>  (46) 
6.39755e-12

>  <r_epik_State_Penalty>  (46) 
-0

>  <r_epik_Charging_Adjusted_Penalty>  (46) 
0

>  <i_epik_Tot_Q>  (46) 
0

>  <i_epik_Tot_abs_Q>  (46) 
0

>  <s_epik_Chemistry_Notes>  (46) 
This compound has an ester and may undergo hydrolysis at high or low pH.

>  <s_lp_Force_Field>  (46) 
OPLS3e

>  <r_lp_Energy>  (46) 
69.7756

>  <b_lp_Chiralities_Consistent>  (46) 
1

>  <s_lp_Variant>  (46) 
16:0-1

>  <s_i_glide_gridfile>  (46) 
pfpi4k_grid

>  <i_i_glide_lignum>  (46) 
20

>  <i_i_glide_rotatable_bonds>  (46) 
0

>  <r_i_docking_score>  (46) 
-3.20763

>  <r_i_glide_ligand_efficiency>  (46) 
-0.168823

>  <r_i_glide_ligand_efficiency_sa>  (46) 
-0.450487

>  <r_i_glide_ligand_efficiency_ln>  (46) 
-0.813203

>  <r_i_glide_gscore>  (46) 
-3.20763

>  <r_i_glide_lipo>  (46) 
-0.355112

>  <r_i_glide_hbond>  (46) 
-0.0851694

>  <r_i_glide_metal>  (46) 
-0

>  <r_i_glide_rewards>  (46) 
-1.62067

>  <r_i_glide_evdw>  (46) 
-16.8022

>  <r_i_glide_ecoul>  (46) 
-1.60438

>  <r_i_glide_erotb>  (46) 
0

>  <r_i_glide_esite>  (46) 
-0.0659052

>  <r_i_glide_emodel>  (46) 
-22.0106

>  <r_i_glide_energy>  (46) 
-18.4066

>  <r_i_glide_einternal>  (46) 
0

>  <r_i_glide_intrahb_reward>  (46) 
-0

>  <i_i_glide_confnum>  (46) 
1

>  <i_i_glide_posenum>  (46) 
35

>  <r_i_glide_eff_state_penalty>  (46) 
0

>  <ligand_id>  (46) 
16

>  <original_smiles>  (46) 
CC12OC3CC4CC1C(C1CC2O1)C1C(=O)OC1C43

>  <smiles>  (46) 
[H]C([H])([H])C12OC3([H])C([H])([H])C4([H])C([H])([H])C1([H])C([H])(C1([H])OC2([H])C1([H])[H])C1([H])C(=O)OC1([H])C34[H]

$$$$
17:0:0
     RDKit          3D

 52 56  0  0  1  0  0  0  0  0999 V2000
    6.0591   -3.1589   -2.1998 C   0  0  0  0  0  0  0  0  0  0  0  0
    4.7591   -2.7019   -1.5109 C   0  0  0  0  0  0  0  0  0  0  0  0
    4.7233   -1.1605   -1.4618 C   0  0  0  0  0  0  0  0  0  0  0  0
    4.5391   -3.3551   -0.1095 C   0  0  2  0  0  0  0  0  0  0  0  0
    4.8236   -4.8804   -0.1085 C   0  0  0  0  0  0  0  0  0  0  0  0
    4.5317   -5.5629    1.2361 C   0  0  0  0  0  0  0  0  0  0  0  0
    3.0777   -5.3179    1.6779 C   0  0  1  0  0  0  0  0  0  0  0  0
    2.8223   -3.8019    1.7575 C   0  0  0  0  0  0  0  0  0  0  0  0
    3.1010   -3.1035    0.4137 C   0  0  0  0  0  0  0  0  0  0  0  0
    2.2297   -5.9083    0.7045 O   0  0  0  0  0  0  0  0  0  0  0  0
    1.9756   -7.2541    1.2706 O   0  0  0  0  0  0  0  0  0  0  0  0
    1.8563   -6.9857    2.6424 C   0  0  1  0  0  0  0  0  0  0  0  0
    2.8166   -5.9479    2.9422 O   0  0  0  0  0  0  0  0  0  0  0  0
    0.4054   -6.4847    2.8782 C   0  0  1  0  0  0  0  0  0  0  0  0
   -0.6024   -7.5623    2.4122 C   0  0  0  0  0  0  0  0  0  0  0  0
   -0.3853   -8.8509    3.2361 C   0  0  2  0  0  0  0  0  0  0  0  0
   -0.6255   -8.5477    4.7313 C   0  0  0  0  0  0  0  0  0  0  0  0
    0.3888   -7.4820    5.1913 C   0  0  2  0  0  0  0  0  0  0  0  0
    0.1773   -6.1938    4.3760 C   0  0  0  0  0  0  0  0  0  0  0  0
    1.8327   -7.9845    4.9781 C   0  0  0  0  0  0  0  0  0  0  0  0
    2.0666   -8.2841    3.4771 C   0  0  1  0  0  0  0  0  0  0  0  0
    1.0555   -9.3697    3.0325 C   0  0  0  0  0  0  0  0  0  0  0  0
    6.9277   -2.9950   -1.5625 H   0  0  0  0  0  0  0  0  0  0  0  0
    6.2333   -2.6558   -3.1428 H   0  0  0  0  0  0  0  0  0  0  0  0
    6.0038   -4.2157   -2.4519 H   0  0  0  0  0  0  0  0  0  0  0  0
    3.9478   -3.0158   -2.1719 H   0  0  0  0  0  0  0  0  0  0  0  0
    5.4481   -0.7701   -0.7497 H   0  0  0  0  0  0  0  0  0  0  0  0
    3.7417   -0.7900   -1.1705 H   0  0  0  0  0  0  0  0  0  0  0  0
    4.9460   -0.7189   -2.4334 H   0  0  0  0  0  0  0  0  0  0  0  0
    5.2431   -2.8973    0.5902 H   0  0  0  0  0  0  0  0  0  0  0  0
    4.2200   -5.3425   -0.8881 H   0  0  0  0  0  0  0  0  0  0  0  0
    5.8635   -5.0832   -0.3563 H   0  0  0  0  0  0  0  0  0  0  0  0
    4.7367   -6.6303    1.1437 H   0  0  0  0  0  0  0  0  0  0  0  0
    5.2263   -5.1849    1.9882 H   0  0  0  0  0  0  0  0  0  0  0  0
    1.7978   -3.6070    2.0693 H   0  0  0  0  0  0  0  0  0  0  0  0
    3.4642   -3.3679    2.5274 H   0  0  0  0  0  0  0  0  0  0  0  0
    2.9190   -2.0358    0.5405 H   0  0  0  0  0  0  0  0  0  0  0  0
    2.3842   -3.4467   -0.3334 H   0  0  0  0  0  0  0  0  0  0  0  0
    0.2454   -5.5718    2.3171 H   0  0  0  0  0  0  0  0  0  0  0  0
   -1.6267   -7.2091    2.5338 H   0  0  0  0  0  0  0  0  0  0  0  0
   -0.4763   -7.7868    1.3504 H   0  0  0  0  0  0  0  0  0  0  0  0
   -1.0926   -9.6174    2.9153 H   0  0  0  0  0  0  0  0  0  0  0  0
   -1.6503   -8.2009    4.8801 H   0  0  0  0  0  0  0  0  0  0  0  0
   -0.5244   -9.4573    5.3242 H   0  0  0  0  0  0  0  0  0  0  0  0
    0.2218   -7.2793    6.2494 H   0  0  0  0  0  0  0  0  0  0  0  0
    0.8526   -5.4138    4.7288 H   0  0  0  0  0  0  0  0  0  0  0  0
   -0.8336   -5.8298    4.5358 H   0  0  0  0  0  0  0  0  0  0  0  0
    2.5396   -7.2369    5.3366 H   0  0  0  0  0  0  0  0  0  0  0  0
    2.0015   -8.8792    5.5747 H   0  0  0  0  0  0  0  0  0  0  0  0
    3.0819   -8.6581    3.3360 H   0  0  0  0  0  0  0  0  0  0  0  0
    1.2007  -10.2858    3.6089 H   0  0  0  0  0  0  0  0  0  0  0  0
    1.2082   -9.6310    1.9841 H   0  0  0  0  0  0  0  0  0  0  0  0
  1  2  1  0
  1 23  1  0
  1 24  1  0
  1 25  1  0
  2  3  1  0
  2  4  1  0
  2 26  1  0
  3 27  1  0
  3 28  1  0
  3 29  1  0
  4  9  1  0
  4  5  1  0
  4 30  1  1
  5  6  1  0
  5 31  1  0
  5 32  1  0
  6  7  1  0
  6 33  1  0
  6 34  1  0
  7 13  1  1
  7  8  1  0
  7 10  1  0
  8  9  1  0
  8 35  1  0
  8 36  1  0
  9 37  1  0
  9 38  1  0
 10 11  1  0
 12 11  1  6
 12 21  1  0
 12 13  1  0
 12 14  1  0
 14 19  1  0
 14 15  1  0
 14 39  1  6
 15 16  1  0
 15 40  1  0
 15 41  1  0
 16 22  1  0
 16 17  1  0
 16 42  1  6
 17 18  1  0
 17 43  1  0
 17 44  1  0
 18 19  1  0
 18 20  1  0
 18 45  1  1
 19 46  1  0
 19 47  1  0
 20 21  1  0
 20 48  1  0
 20 49  1  0
 21 22  1  0
 21 50  1  1
 22 51  1  0
 22 52  1  0
M  END
>  <i_m_ct_stereo_status>  (47) 
1

>  <s_m_source_file>  (47) 
/var/tmp/pbs.5076255.sched01/tmp98udq4tg/0t315e5yz.sdf

>  <i_m_source_file_index>  (47) 
21

>  <i_lp_mmshare_version>  (47) 
48012

>  <i_f3d_flags>  (47) 
0

>  <s_epik_input>  (47) 
W0NIM11bQ0hdKFtDSDNdKVtDQEBIXShbQ0gyXVtDSDJdMSlbQ0gyXVtDSDJdW0NAXTEyT09bQ0BAXTMoTzIpW0NASF00W0NIMl1bQ0BASF01W0NIMl1bQ0BIXShbQ0gyXTQpW0NIMl1bQ0BIXTNbQ0gyXTU=

>  <s_epik_cmdline>  (47) 
J2VwaWtfcHl0aG9uJywgJy1waHQnLCAnMi4wJywgJy1waCcsICc3LjAnLCAnLXRuJywgJzgnLCAnLW1hJywgJzIwMCcsICctaW1hZScsICc8aW5maWxlLm1hZT4nLCAnLW9tYWUnLCAnPG91dGZpbGUubWFlPic=

>  <r_lp_tautomer_probability>  (47) 
1

>  <r_epik_Ionization_Penalty>  (47) 
1.97337e-15

>  <r_epik_Ionization_Penalty_Charging>  (47) 
0

>  <r_epik_Ionization_Penalty_Neutral>  (47) 
1.97337e-15

>  <r_epik_State_Penalty>  (47) 
-0

>  <r_epik_Charging_Adjusted_Penalty>  (47) 
0

>  <i_epik_Tot_Q>  (47) 
0

>  <i_epik_Tot_abs_Q>  (47) 
0

>  <s_lp_Force_Field>  (47) 
OPLS3e

>  <r_lp_Energy>  (47) 
7.63226

>  <b_lp_Chiralities_Consistent>  (47) 
1

>  <s_lp_Variant>  (47) 
17:0-1

>  <s_i_glide_gridfile>  (47) 
pfpi4k_grid

>  <i_i_glide_lignum>  (47) 
21

>  <i_i_glide_rotatable_bonds>  (47) 
1

>  <r_i_docking_score>  (47) 
-2.74425

>  <r_i_glide_ligand_efficiency>  (47) 
-0.124739

>  <r_i_glide_ligand_efficiency_sa>  (47) 
-0.349523

>  <r_i_glide_ligand_efficiency_ln>  (47) 
-0.670795

>  <r_i_glide_gscore>  (47) 
-2.74425

>  <r_i_glide_lipo>  (47) 
-0.289225

>  <r_i_glide_hbond>  (47) 
0

>  <r_i_glide_metal>  (47) 
-0

>  <r_i_glide_rewards>  (47) 
-1.31973

>  <r_i_glide_evdw>  (47) 
-19.9271

>  <r_i_glide_ecoul>  (47) 
-0.821291

>  <r_i_glide_erotb>  (47) 
0

>  <r_i_glide_esite>  (47) 
-0.015751

>  <r_i_glide_emodel>  (47) 
-23.8708

>  <r_i_glide_energy>  (47) 
-20.7484

>  <r_i_glide_einternal>  (47) 
0.435931

>  <r_i_glide_intrahb_reward>  (47) 
-0

>  <i_i_glide_confnum>  (47) 
1

>  <i_i_glide_posenum>  (47) 
5

>  <r_i_glide_eff_state_penalty>  (47) 
0

>  <ligand_id>  (47) 
17

>  <original_smiles>  (47) 
CC(C)C1CCC2(CC1)OOC1(O2)C2CC3CC(C2)CC1C3

>  <smiles>  (47) 
[H]C([H])([H])C([H])(C([H])([H])[H])C1([H])C([H])([H])C([H])([H])C2(OOC3(O2)C2([H])C([H])([H])C4([H])C([H])([H])C([H])(C2([H])[H])C([H])([H])C3([H])C4([H])[H])C([H])([H])C1([H])[H]

$$$$
17:0:1
     RDKit          3D

 52 56  0  0  1  0  0  0  0  0999 V2000
    4.6442   -1.5933   -1.4239 C   0  0  0  0  0  0  0  0  0  0  0  0
    4.2968   -1.7491    0.0688 C   0  0  0  0  0  0  0  0  0  0  0  0
    5.1344   -0.7466    0.8899 C   0  0  0  0  0  0  0  0  0  0  0  0
    4.4434   -3.2188    0.5783 C   0  0  2  0  0  0  0  0  0  0  0  0
    3.5780   -4.2089   -0.2397 C   0  0  0  0  0  0  0  0  0  0  0  0
    3.6437   -5.6494    0.2946 C   0  0  0  0  0  0  0  0  0  0  0  0
    3.2163   -5.7274    1.7714 C   0  0  1  0  0  0  0  0  0  0  0  0
    4.1257   -4.7996    2.5979 C   0  0  0  0  0  0  0  0  0  0  0  0
    4.0778   -3.3517    2.0803 C   0  0  0  0  0  0  0  0  0  0  0  0
    1.8735   -5.2873    1.8294 O   0  0  0  0  0  0  0  0  0  0  0  0
    1.1065   -6.5526    1.7614 O   0  0  0  0  0  0  0  0  0  0  0  0
    1.9108   -7.4203    2.5344 C   0  0  1  0  0  0  0  0  0  0  0  0
    3.2696   -7.0731    2.2549 O   0  0  0  0  0  0  0  0  0  0  0  0
    1.5755   -7.1638    4.0338 C   0  0  1  0  0  0  0  0  0  0  0  0
    0.0715   -7.4168    4.2804 C   0  0  0  0  0  0  0  0  0  0  0  0
   -0.2637   -8.8892    3.9488 C   0  0  2  0  0  0  0  0  0  0  0  0
    0.5538   -9.8223    4.8707 C   0  0  0  0  0  0  0  0  0  0  0  0
    2.0516   -9.5759    4.6204 C   0  0  2  0  0  0  0  0  0  0  0  0
    2.3933   -8.1054    4.9482 C   0  0  0  0  0  0  0  0  0  0  0  0
    2.4064   -9.8517    3.1416 C   0  0  0  0  0  0  0  0  0  0  0  0
    1.5844   -8.9150    2.2198 C   0  0  1  0  0  0  0  0  0  0  0  0
    0.0804   -9.1881    2.4755 C   0  0  0  0  0  0  0  0  0  0  0  0
    5.6385   -1.9804   -1.6412 H   0  0  0  0  0  0  0  0  0  0  0  0
    4.6148   -0.5501   -1.7361 H   0  0  0  0  0  0  0  0  0  0  0  0
    3.9341   -2.1213   -2.0589 H   0  0  0  0  0  0  0  0  0  0  0  0
    3.2524   -1.4495    0.1783 H   0  0  0  0  0  0  0  0  0  0  0  0
    6.1843   -1.0345    0.9150 H   0  0  0  0  0  0  0  0  0  0  0  0
    4.7821   -0.6682    1.9165 H   0  0  0  0  0  0  0  0  0  0  0  0
    5.0756    0.2592    0.4804 H   0  0  0  0  0  0  0  0  0  0  0  0
    5.4873   -3.5172    0.4579 H   0  0  0  0  0  0  0  0  0  0  0  0
    2.5445   -3.8583   -0.2322 H   0  0  0  0  0  0  0  0  0  0  0  0
    3.8844   -4.2292   -1.2843 H   0  0  0  0  0  0  0  0  0  0  0  0
    2.9774   -6.2531   -0.3136 H   0  0  0  0  0  0  0  0  0  0  0  0
    4.6518   -6.0453    0.1562 H   0  0  0  0  0  0  0  0  0  0  0  0
    3.8421   -4.8213    3.6486 H   0  0  0  0  0  0  0  0  0  0  0  0
    5.1564   -5.1564    2.5444 H   0  0  0  0  0  0  0  0  0  0  0  0
    4.7640   -2.7690    2.6939 H   0  0  0  0  0  0  0  0  0  0  0  0
    3.0805   -2.9374    2.2410 H   0  0  0  0  0  0  0  0  0  0  0  0
    1.8067   -6.1364    4.2980 H   0  0  0  0  0  0  0  0  0  0  0  0
   -0.1901   -7.1999    5.3175 H   0  0  0  0  0  0  0  0  0  0  0  0
   -0.5403   -6.7588    3.6631 H   0  0  0  0  0  0  0  0  0  0  0  0
   -1.3282   -9.0566    4.1163 H   0  0  0  0  0  0  0  0  0  0  0  0
    0.2996   -9.6325    5.9157 H   0  0  0  0  0  0  0  0  0  0  0  0
    0.2864  -10.8631    4.6856 H   0  0  0  0  0  0  0  0  0  0  0  0
    2.6260  -10.2414    5.2687 H   0  0  0  0  0  0  0  0  0  0  0  0
    3.4638   -7.9371    4.8244 H   0  0  0  0  0  0  0  0  0  0  0  0
    2.1716   -7.9015    5.9961 H   0  0  0  0  0  0  0  0  0  0  0  0
    3.4757   -9.7045    2.9853 H   0  0  0  0  0  0  0  0  0  0  0  0
    2.2057  -10.8963    2.9044 H   0  0  0  0  0  0  0  0  0  0  0  0
    1.8276   -9.1383    1.1820 H   0  0  0  0  0  0  0  0  0  0  0  0
   -0.1647  -10.2261    2.2393 H   0  0  0  0  0  0  0  0  0  0  0  0
   -0.5348   -8.5698    1.8181 H   0  0  0  0  0  0  0  0  0  0  0  0
  1  2  1  0
  1 23  1  0
  1 24  1  0
  1 25  1  0
  2  3  1  0
  2  4  1  0
  2 26  1  0
  3 27  1  0
  3 28  1  0
  3 29  1  0
  4  9  1  0
  4  5  1  0
  4 30  1  1
  5  6  1  0
  5 31  1  0
  5 32  1  0
  6  7  1  0
  6 33  1  0
  6 34  1  0
  7 13  1  1
  7  8  1  0
  7 10  1  0
  8  9  1  0
  8 35  1  0
  8 36  1  0
  9 37  1  0
  9 38  1  0
 10 11  1  0
 12 11  1  6
 12 21  1  0
 12 13  1  0
 12 14  1  0
 14 19  1  0
 14 15  1  0
 14 39  1  1
 15 16  1  0
 15 40  1  0
 15 41  1  0
 16 22  1  0
 16 17  1  0
 16 42  1  6
 17 18  1  0
 17 43  1  0
 17 44  1  0
 18 19  1  0
 18 20  1  0
 18 45  1  1
 19 46  1  0
 19 47  1  0
 20 21  1  0
 20 48  1  0
 20 49  1  0
 21 22  1  0
 21 50  1  6
 22 51  1  0
 22 52  1  0
M  END
>  <i_m_ct_stereo_status>  (48) 
1

>  <s_m_source_file>  (48) 
/var/tmp/pbs.5076255.sched01/tmp98udq4tg/0t315e5yz.sdf

>  <i_m_source_file_index>  (48) 
21

>  <i_lp_mmshare_version>  (48) 
48012

>  <i_f3d_flags>  (48) 
0

>  <s_epik_input>  (48) 
W0NIM11bQ0hdKFtDSDNdKVtDQEBIXShbQ0gyXVtDSDJdMSlbQ0gyXVtDSDJdW0NAXTEyT09bQ0BAXTMoTzIpW0NASF00W0NIMl1bQ0BASF01W0NIMl1bQ0BIXShbQ0gyXTQpW0NIMl1bQ0BIXTNbQ0gyXTU=

>  <s_epik_cmdline>  (48) 
J2VwaWtfcHl0aG9uJywgJy1waHQnLCAnMi4wJywgJy1waCcsICc3LjAnLCAnLXRuJywgJzgnLCAnLW1hJywgJzIwMCcsICctaW1hZScsICc8aW5maWxlLm1hZT4nLCAnLW9tYWUnLCAnPG91dGZpbGUubWFlPic=

>  <r_lp_tautomer_probability>  (48) 
1

>  <r_epik_Ionization_Penalty>  (48) 
1.97337e-15

>  <r_epik_Ionization_Penalty_Charging>  (48) 
0

>  <r_epik_Ionization_Penalty_Neutral>  (48) 
1.97337e-15

>  <r_epik_State_Penalty>  (48) 
-0

>  <r_epik_Charging_Adjusted_Penalty>  (48) 
0

>  <i_epik_Tot_Q>  (48) 
0

>  <i_epik_Tot_abs_Q>  (48) 
0

>  <s_lp_Force_Field>  (48) 
OPLS3e

>  <r_lp_Energy>  (48) 
7.63226

>  <b_lp_Chiralities_Consistent>  (48) 
1

>  <s_lp_Variant>  (48) 
17:0-1

>  <s_i_glide_gridfile>  (48) 
pfpi4k_grid

>  <i_i_glide_lignum>  (48) 
21

>  <i_i_glide_rotatable_bonds>  (48) 
1

>  <r_i_docking_score>  (48) 
-2.67168

>  <r_i_glide_ligand_efficiency>  (48) 
-0.12144

>  <r_i_glide_ligand_efficiency_sa>  (48) 
-0.34028

>  <r_i_glide_ligand_efficiency_ln>  (48) 
-0.653057

>  <r_i_glide_gscore>  (48) 
-2.67168

>  <r_i_glide_lipo>  (48) 
-0.173419

>  <r_i_glide_hbond>  (48) 
-0.0212417

>  <r_i_glide_metal>  (48) 
-0

>  <r_i_glide_rewards>  (48) 
-1.33932

>  <r_i_glide_evdw>  (48) 
-18.2482

>  <r_i_glide_ecoul>  (48) 
-1.41027

>  <r_i_glide_erotb>  (48) 
0

>  <r_i_glide_esite>  (48) 
-0.0137503

>  <r_i_glide_emodel>  (48) 
-22.9141

>  <r_i_glide_energy>  (48) 
-19.6585

>  <r_i_glide_einternal>  (48) 
0.00407415

>  <r_i_glide_intrahb_reward>  (48) 
-0

>  <i_i_glide_confnum>  (48) 
1

>  <i_i_glide_posenum>  (48) 
29

>  <r_i_glide_eff_state_penalty>  (48) 
0

>  <ligand_id>  (48) 
17

>  <original_smiles>  (48) 
CC(C)C1CCC2(CC1)OOC1(O2)C2CC3CC(C2)CC1C3

>  <smiles>  (48) 
[H]C([H])([H])C([H])(C([H])([H])[H])C1([H])C([H])([H])C([H])([H])C2(OOC3(O2)C2([H])C([H])([H])C4([H])C([H])([H])C([H])(C2([H])[H])C([H])([H])C3([H])C4([H])[H])C([H])([H])C1([H])[H]

$$$$
17:0:2
     RDKit          3D

 52 56  0  0  1  0  0  0  0  0999 V2000
    4.7387   -0.8529   -1.0844 C   0  0  0  0  0  0  0  0  0  0  0  0
    4.7039   -2.3834   -1.2515 C   0  0  0  0  0  0  0  0  0  0  0  0
    3.6991   -2.7837   -2.3578 C   0  0  0  0  0  0  0  0  0  0  0  0
    4.4926   -3.1405    0.1083 C   0  0  2  0  0  0  0  0  0  0  0  0
    4.7899   -4.6565   -0.0037 C   0  0  0  0  0  0  0  0  0  0  0  0
    4.5310   -5.4290    1.2961 C   0  0  0  0  0  0  0  0  0  0  0  0
    3.0826   -5.2004    1.7908 C   0  0  1  0  0  0  0  0  0  0  0  0
    2.8511   -3.6910    2.0204 C   0  0  0  0  0  0  0  0  0  0  0  0
    3.0874   -2.9067    0.7345 C   0  0  0  0  0  0  0  0  0  0  0  0
    2.1918   -5.6807    0.7870 O   0  0  0  0  0  0  0  0  0  0  0  0
    1.9075   -7.0641    1.2386 O   0  0  0  0  0  0  0  0  0  0  0  0
    1.8268   -6.9001    2.6476 C   0  0  1  0  0  0  0  0  0  0  0  0
    2.8281   -5.9257    3.0085 O   0  0  0  0  0  0  0  0  0  0  0  0
    0.3931   -6.3853    2.9673 C   0  0  1  0  0  0  0  0  0  0  0  0
   -0.6369   -7.4020    2.4505 C   0  0  0  0  0  0  0  0  0  0  0  0
   -0.4222   -8.7491    3.1707 C   0  0  2  0  0  0  0  0  0  0  0  0
   -0.6285   -8.5549    4.6842 C   0  0  0  0  0  0  0  0  0  0  0  0
    0.4207   -7.5413    5.2037 C   0  0  2  0  0  0  0  0  0  0  0  0
    0.2191   -6.1995    4.4874 C   0  0  0  0  0  0  0  0  0  0  0  0
    1.8433   -8.0625    4.9157 C   0  0  0  0  0  0  0  0  0  0  0  0
    2.0391   -8.2664    3.3912 C   0  0  1  0  0  0  0  0  0  0  0  0
    1.0008   -9.2863    2.8986 C   0  0  0  0  0  0  0  0  0  0  0  0
    3.8297   -0.4814   -0.6181 H   0  0  0  0  0  0  0  0  0  0  0  0
    4.8286   -0.3408   -2.0469 H   0  0  0  0  0  0  0  0  0  0  0  0
    5.5772   -0.5354   -0.4655 H   0  0  0  0  0  0  0  0  0  0  0  0
    5.6941   -2.6477   -1.6335 H   0  0  0  0  0  0  0  0  0  0  0  0
    2.6672   -2.6005   -2.0608 H   0  0  0  0  0  0  0  0  0  0  0  0
    3.7899   -3.8396   -2.6164 H   0  0  0  0  0  0  0  0  0  0  0  0
    3.8609   -2.2156   -3.2786 H   0  0  0  0  0  0  0  0  0  0  0  0
    5.2310   -2.7423    0.8101 H   0  0  0  0  0  0  0  0  0  0  0  0
    4.1585   -5.0936   -0.7725 H   0  0  0  0  0  0  0  0  0  0  0  0
    5.8171   -4.8157   -0.3336 H   0  0  0  0  0  0  0  0  0  0  0  0
    4.7051   -6.4955    1.1247 H   0  0  0  0  0  0  0  0  0  0  0  0
    5.2339   -5.1251    2.0685 H   0  0  0  0  0  0  0  0  0  0  0  0
    1.8304   -3.5142    2.3622 H   0  0  0  0  0  0  0  0  0  0  0  0
    3.5147   -3.3405    2.8077 H   0  0  0  0  0  0  0  0  0  0  0  0
    2.9287   -1.8506    0.9526 H   0  0  0  0  0  0  0  0  0  0  0  0
    2.3051   -3.1996    0.0334 H   0  0  0  0  0  0  0  0  0  0  0  0
    0.2527   -5.4342    2.4799 H   0  0  0  0  0  0  0  0  0  0  0  0
   -1.6483   -7.0491    2.6270 H   0  0  0  0  0  0  0  0  0  0  0  0
   -0.5443   -7.5530    1.3762 H   0  0  0  0  0  0  0  0  0  0  0  0
   -1.1594   -9.4849    2.8149 H   0  0  0  0  0  0  0  0  0  0  0  0
   -1.6434   -8.2025    4.8824 H   0  0  0  0  0  0  0  0  0  0  0  0
   -0.5253   -9.5003    5.2124 H   0  0  0  0  0  0  0  0  0  0  0  0
    0.2785   -7.4210    6.2747 H   0  0  0  0  0  0  0  0  0  0  0  0
    0.9188   -5.4597    4.8844 H   0  0  0  0  0  0  0  0  0  0  0  0
   -0.7797   -5.8244    4.7004 H   0  0  0  0  0  0  0  0  0  0  0  0
    2.5781   -7.3601    5.3188 H   0  0  0  0  0  0  0  0  0  0  0  0
    1.9984   -9.0033    5.4399 H   0  0  0  0  0  0  0  0  0  0  0  0
    3.0476   -8.6397    3.1990 H   0  0  0  0  0  0  0  0  0  0  0  0
    1.1335  -10.2363    3.4056 H   0  0  0  0  0  0  0  0  0  0  0  0
    1.1196   -9.4745    1.8330 H   0  0  0  0  0  0  0  0  0  0  0  0
  1  2  1  0
  1 23  1  0
  1 24  1  0
  1 25  1  0
  2  3  1  0
  2  4  1  0
  2 26  1  0
  3 27  1  0
  3 28  1  0
  3 29  1  0
  4  9  1  0
  4  5  1  0
  4 30  1  1
  5  6  1  0
  5 31  1  0
  5 32  1  0
  6  7  1  0
  6 33  1  0
  6 34  1  0
  7 13  1  1
  7  8  1  0
  7 10  1  0
  8  9  1  0
  8 35  1  0
  8 36  1  0
  9 37  1  0
  9 38  1  0
 10 11  1  0
 12 11  1  6
 12 21  1  0
 12 13  1  0
 12 14  1  0
 14 19  1  0
 14 15  1  0
 14 39  1  6
 15 16  1  0
 15 40  1  0
 15 41  1  0
 16 22  1  0
 16 17  1  0
 16 42  1  6
 17 18  1  0
 17 43  1  0
 17 44  1  0
 18 19  1  0
 18 20  1  0
 18 45  1  1
 19 46  1  0
 19 47  1  0
 20 21  1  0
 20 48  1  0
 20 49  1  0
 21 22  1  0
 21 50  1  1
 22 51  1  0
 22 52  1  0
M  END
>  <i_m_ct_stereo_status>  (49) 
1

>  <s_m_source_file>  (49) 
/var/tmp/pbs.5076255.sched01/tmp98udq4tg/0t315e5yz.sdf

>  <i_m_source_file_index>  (49) 
21

>  <i_lp_mmshare_version>  (49) 
48012

>  <i_f3d_flags>  (49) 
0

>  <s_epik_input>  (49) 
W0NIM11bQ0hdKFtDSDNdKVtDQEBIXShbQ0gyXVtDSDJdMSlbQ0gyXVtDSDJdW0NAXTEyT09bQ0BAXTMoTzIpW0NASF00W0NIMl1bQ0BASF01W0NIMl1bQ0BIXShbQ0gyXTQpW0NIMl1bQ0BIXTNbQ0gyXTU=

>  <s_epik_cmdline>  (49) 
J2VwaWtfcHl0aG9uJywgJy1waHQnLCAnMi4wJywgJy1waCcsICc3LjAnLCAnLXRuJywgJzgnLCAnLW1hJywgJzIwMCcsICctaW1hZScsICc8aW5maWxlLm1hZT4nLCAnLW9tYWUnLCAnPG91dGZpbGUubWFlPic=

>  <r_lp_tautomer_probability>  (49) 
1

>  <r_epik_Ionization_Penalty>  (49) 
1.97337e-15

>  <r_epik_Ionization_Penalty_Charging>  (49) 
0

>  <r_epik_Ionization_Penalty_Neutral>  (49) 
1.97337e-15

>  <r_epik_State_Penalty>  (49) 
-0

>  <r_epik_Charging_Adjusted_Penalty>  (49) 
0

>  <i_epik_Tot_Q>  (49) 
0

>  <i_epik_Tot_abs_Q>  (49) 
0

>  <s_lp_Force_Field>  (49) 
OPLS3e

>  <r_lp_Energy>  (49) 
7.63226

>  <b_lp_Chiralities_Consistent>  (49) 
1

>  <s_lp_Variant>  (49) 
17:0-1

>  <s_i_glide_gridfile>  (49) 
pfpi4k_grid

>  <i_i_glide_lignum>  (49) 
21

>  <i_i_glide_rotatable_bonds>  (49) 
1

>  <r_i_docking_score>  (49) 
-2.54327

>  <r_i_glide_ligand_efficiency>  (49) 
-0.115603

>  <r_i_glide_ligand_efficiency_sa>  (49) 
-0.323924

>  <r_i_glide_ligand_efficiency_ln>  (49) 
-0.621668

>  <r_i_glide_gscore>  (49) 
-2.54327

>  <r_i_glide_lipo>  (49) 
-0.0837181

>  <r_i_glide_hbond>  (49) 
0

>  <r_i_glide_metal>  (49) 
-0

>  <r_i_glide_rewards>  (49) 
-1.31973

>  <r_i_glide_evdw>  (49) 
-19.6365

>  <r_i_glide_ecoul>  (49) 
-0.942863

>  <r_i_glide_erotb>  (49) 
0

>  <r_i_glide_esite>  (49) 
-0.0165674

>  <r_i_glide_emodel>  (49) 
-22.521

>  <r_i_glide_energy>  (49) 
-20.5794

>  <r_i_glide_einternal>  (49) 
1.99644

>  <r_i_glide_intrahb_reward>  (49) 
-0

>  <i_i_glide_confnum>  (49) 
1

>  <i_i_glide_posenum>  (49) 
35

>  <r_i_glide_eff_state_penalty>  (49) 
0

>  <ligand_id>  (49) 
17

>  <original_smiles>  (49) 
CC(C)C1CCC2(CC1)OOC1(O2)C2CC3CC(C2)CC1C3

>  <smiles>  (49) 
[H]C([H])([H])C([H])(C([H])([H])[H])C1([H])C([H])([H])C([H])([H])C2(OOC3(O2)C2([H])C([H])([H])C4([H])C([H])([H])C([H])(C2([H])[H])C([H])([H])C3([H])C4([H])[H])C([H])([H])C1([H])[H]

$$$$
18:0:0
     RDKit          3D

 46 48  0  0  1  0  0  0  0  0999 V2000
    6.7420   -9.7171    2.3515 C   0  0  0  0  0  0  0  0  0  0  0  0
    5.4940   -9.2979    2.8831 O   0  0  0  0  0  0  0  0  0  0  0  0
    4.4527   -9.2908    1.9481 C   0  0  2  0  0  0  0  0  0  0  0  0
    4.6212   -8.3232    0.9768 O   0  0  0  0  0  0  0  0  0  0  0  0
    4.6350   -7.0031    1.4999 C   0  0  1  0  0  0  0  0  0  0  0  0
    5.0706   -6.0919    0.4022 C   0  0  0  0  0  0  0  0  0  0  0  0
    3.2870   -6.6115    2.1821 C   0  0  1  0  0  0  0  0  0  0  0  0
    1.9970   -6.6566    1.3015 C   0  0  0  0  0  0  0  0  0  0  0  0
    1.6338   -5.8330    0.3927 N   0  0  0  0  0  0  0  0  0  0  0  0
    2.5431   -4.7633    0.2172 O   0  0  0  0  0  0  0  0  0  0  0  0
    2.1827   -3.9912   -0.9405 C   0  0  0  0  0  0  0  0  0  0  0  0
    3.3585   -3.1139   -1.4952 C   0  0  0  0  0  0  0  0  0  0  0  0
    4.7776   -3.7113   -1.3920 C   0  0  0  0  0  0  0  0  0  0  0  0
    3.1032   -2.7131   -2.9429 C   0  0  0  0  0  0  0  0  0  0  0  0
    3.4038   -1.9125   -0.7405 O   0  0  0  0  0  0  0  0  0  0  0  0
    1.0740   -7.8062    1.7494 C   0  0  2  0  0  0  0  0  0  0  0  0
    0.7363   -7.5211    3.2092 C   0  0  0  0  0  0  0  0  0  0  0  0
    1.7812   -7.4112    4.0374 C   0  0  0  0  0  0  0  0  0  0  0  0
    3.1385   -7.6090    3.3630 C   0  0  1  0  0  0  0  0  0  0  0  0
    3.1237   -9.0154    2.6955 C   0  0  1  0  0  0  0  0  0  0  0  0
    1.9049   -9.1243    1.7179 C   0  0  0  0  0  0  0  0  0  0  0  0
    7.4822   -9.7367    3.1527 H   0  0  0  0  0  0  0  0  0  0  0  0
    7.1033   -9.0310    1.5854 H   0  0  0  0  0  0  0  0  0  0  0  0
    6.6863  -10.7205    1.9285 H   0  0  0  0  0  0  0  0  0  0  0  0
    4.4229  -10.2470    1.4247 H   0  0  0  0  0  0  0  0  0  0  0  0
    5.4265   -6.8887    2.2465 H   0  0  0  0  0  0  0  0  0  0  0  0
    5.0125   -5.1320    0.8441 H   0  0  0  0  0  0  0  0  0  0  0  0
    4.3845   -6.2164   -0.4455 H   0  0  0  0  0  0  0  0  0  0  0  0
    6.0927   -6.2715    0.0578 H   0  0  0  0  0  0  0  0  0  0  0  0
    3.3539   -5.5946    2.5781 H   0  0  0  0  0  0  0  0  0  0  0  0
    1.7705   -4.6333   -1.7059 H   0  0  0  0  0  0  0  0  0  0  0  0
    1.3364   -3.3378   -0.7190 H   0  0  0  0  0  0  0  0  0  0  0  0
    4.7797   -4.6981   -1.8938 H   0  0  0  0  0  0  0  0  0  0  0  0
    5.0283   -3.7371   -0.3762 H   0  0  0  0  0  0  0  0  0  0  0  0
    5.5344   -3.1193   -1.9131 H   0  0  0  0  0  0  0  0  0  0  0  0
    3.0845   -3.6059   -3.5811 H   0  0  0  0  0  0  0  0  0  0  0  0
    3.9273   -2.0764   -3.2978 H   0  0  0  0  0  0  0  0  0  0  0  0
    2.1617   -2.1703   -3.0598 H   0  0  0  0  0  0  0  0  0  0  0  0
    2.5292   -1.5338   -0.7047 H   0  0  0  0  0  0  0  0  0  0  0  0
    0.1717   -7.8572    1.1433 H   0  0  0  0  0  0  0  0  0  0  0  0
   -0.2942   -7.4400    3.5377 H   0  0  0  0  0  0  0  0  0  0  0  0
    1.7134   -7.2344    5.0974 H   0  0  0  0  0  0  0  0  0  0  0  0
    3.9462   -7.4939    4.0839 H   0  0  0  0  0  0  0  0  0  0  0  0
    3.0435   -9.7730    3.4614 H   0  0  0  0  0  0  0  0  0  0  0  0
    1.2730   -9.9504    2.0433 H   0  0  0  0  0  0  0  0  0  0  0  0
    2.2249   -9.3656    0.7059 H   0  0  0  0  0  0  0  0  0  0  0  0
  1  2  1  0
  1 22  1  0
  1 23  1  0
  1 24  1  0
  2  3  1  0
  3 20  1  0
  3  4  1  0
  3 25  1  6
  4  5  1  0
  5  6  1  0
  5  7  1  0
  5 26  1  1
  6 27  1  0
  6 28  1  0
  6 29  1  0
  7 19  1  0
  7  8  1  0
  7 30  1  1
  8  9  2  3
  8 16  1  0
  9 10  1  0
 10 11  1  0
 11 12  1  0
 11 31  1  0
 11 32  1  0
 12 13  1  0
 12 14  1  0
 12 15  1  0
 13 33  1  0
 13 34  1  0
 13 35  1  0
 14 36  1  0
 14 37  1  0
 14 38  1  0
 15 39  1  0
 16 21  1  0
 16 17  1  0
 16 40  1  6
 17 18  2  0
 17 41  1  0
 18 19  1  0
 18 42  1  0
 19 20  1  0
 19 43  1  1
 20 21  1  0
 20 44  1  1
 21 45  1  0
 21 46  1  0
M  END
>  <i_m_ct_stereo_status>  (50) 
1

>  <s_m_source_file>  (50) 
/var/tmp/pbs.5076255.sched01/tmp98udq4tg/0t315e5yz.sdf

>  <i_m_source_file_index>  (50) 
22

>  <i_lp_mmshare_version>  (50) 
48012

>  <i_f3d_flags>  (50) 
0

>  <s_epik_input>  (50) 
W0NIM11bQ0BASF0xT1tDQEBIXShPW0NIM10pW0NIXShbQ0hdMltDSF0xMylbQ0gyXVtDQEBIXShbQ0hdPVtDSF0yKUNcMz1OXE9bQ0gyXUMoW0NIM10pKFtDSDNdKVtPSF0=

>  <s_epik_cmdline>  (50) 
J2VwaWtfcHl0aG9uJywgJy1waHQnLCAnMi4wJywgJy1waCcsICc3LjAnLCAnLXRuJywgJzgnLCAnLW1hJywgJzIwMCcsICctaW1hZScsICc8aW5maWxlLm1hZT4nLCAnLW9tYWUnLCAnPG91dGZpbGUubWFlPic=

>  <r_lp_tautomer_probability>  (50) 
1

>  <r_epik_Ionization_Penalty>  (50) 
4.92718e-08

>  <r_epik_Ionization_Penalty_Charging>  (50) 
0

>  <r_epik_Ionization_Penalty_Neutral>  (50) 
4.92718e-08

>  <r_epik_State_Penalty>  (50) 
-0

>  <r_epik_Charging_Adjusted_Penalty>  (50) 
0

>  <i_epik_Tot_Q>  (50) 
0

>  <i_epik_Tot_abs_Q>  (50) 
0

>  <s_epik_Chemistry_Notes>  (50) 
This compound has an imine and may undergo hydrolysis. This compound contains an acetal/aminal-like group ( X-CH(R)-Y where X, Y are N, S, or O) that may be acid/base labile, releasing an aldehyde.

>  <s_lp_Force_Field>  (50) 
OPLS3e

>  <r_lp_Energy>  (50) 
38.0821

>  <b_lp_Chiralities_Consistent>  (50) 
1

>  <s_lp_Variant>  (50) 
18:0-1

>  <s_i_glide_gridfile>  (50) 
pfpi4k_grid

>  <i_i_glide_lignum>  (50) 
22

>  <i_i_glide_rotatable_bonds>  (50) 
5

>  <r_i_docking_score>  (50) 
-3.13739

>  <r_i_glide_ligand_efficiency>  (50) 
-0.1494

>  <r_i_glide_ligand_efficiency_sa>  (50) 
-0.412182

>  <r_i_glide_ligand_efficiency_ln>  (50) 
-0.775714

>  <r_i_glide_gscore>  (50) 
-3.13739

>  <r_i_glide_lipo>  (50) 
-0.311521

>  <r_i_glide_hbond>  (50) 
0

>  <r_i_glide_metal>  (50) 
-0

>  <r_i_glide_rewards>  (50) 
-1.39518

>  <r_i_glide_evdw>  (50) 
-19.8855

>  <r_i_glide_ecoul>  (50) 
-5.66621

>  <r_i_glide_erotb>  (50) 
0.629371

>  <r_i_glide_esite>  (50) 
-0.215857

>  <r_i_glide_emodel>  (50) 
-27.3882

>  <r_i_glide_energy>  (50) 
-25.5518

>  <r_i_glide_einternal>  (50) 
3.09971

>  <r_i_glide_intrahb_reward>  (50) 
-0

>  <i_i_glide_confnum>  (50) 
1

>  <i_i_glide_posenum>  (50) 
32

>  <r_i_glide_eff_state_penalty>  (50) 
0

>  <ligand_id>  (50) 
18

>  <original_smiles>  (50) 
COC1OC(C)C2C(=NOCC(C)(C)O)C3C=CC2C1C3

>  <smiles>  (50) 
[H]OC(C([H])([H])[H])(C([H])([H])[H])C([H])([H])ON=C1C2([H])C([H])=C([H])C3([H])C1([H])C([H])(C([H])([H])[H])OC([H])(OC([H])([H])[H])C3([H])C2([H])[H]

$$$$
18:0:1
     RDKit          3D

 46 48  0  0  1  0  0  0  0  0999 V2000
    5.0310  -10.7203    4.1210 C   0  0  0  0  0  0  0  0  0  0  0  0
    3.7575  -10.1538    4.3962 O   0  0  0  0  0  0  0  0  0  0  0  0
    2.9070  -10.1091    3.2944 C   0  0  2  0  0  0  0  0  0  0  0  0
    3.3117   -9.1661    2.3395 O   0  0  0  0  0  0  0  0  0  0  0  0
    3.3192   -7.8120    2.8017 C   0  0  1  0  0  0  0  0  0  0  0  0
    4.0095   -6.9784    1.7289 C   0  0  0  0  0  0  0  0  0  0  0  0
    1.8877   -7.3583    3.2354 C   0  0  1  0  0  0  0  0  0  0  0  0
    0.7812   -7.4085    2.1309 C   0  0  0  0  0  0  0  0  0  0  0  0
    0.6551   -6.6374    1.1169 N   0  0  0  0  0  0  0  0  0  0  0  0
    1.5808   -5.5802    1.1339 O   0  0  0  0  0  0  0  0  0  0  0  0
    1.8811   -5.1914   -0.2040 C   0  0  0  0  0  0  0  0  0  0  0  0
    2.9267   -4.0425   -0.2478 C   0  0  0  0  0  0  0  0  0  0  0  0
    2.8295   -3.2459   -1.5630 C   0  0  0  0  0  0  0  0  0  0  0  0
    2.8027   -3.0940    0.9561 C   0  0  0  0  0  0  0  0  0  0  0  0
    4.2364   -4.5726   -0.2573 O   0  0  0  0  0  0  0  0  0  0  0  0
   -0.2798   -8.4777    2.4558 C   0  0  2  0  0  0  0  0  0  0  0  0
   -0.8544   -8.1120    3.8227 C   0  0  0  0  0  0  0  0  0  0  0  0
    0.0449   -8.0329    4.8216 C   0  0  0  0  0  0  0  0  0  0  0  0
    1.4811   -8.3157    4.4027 C   0  0  1  0  0  0  0  0  0  0  0  0
    1.4885   -9.7480    3.7875 C   0  0  1  0  0  0  0  0  0  0  0  0
    0.4594   -9.8322    2.6144 C   0  0  0  0  0  0  0  0  0  0  0  0
    5.6170  -10.7499    5.0384 H   0  0  0  0  0  0  0  0  0  0  0  0
    5.5831  -10.1267    3.3931 H   0  0  0  0  0  0  0  0  0  0  0  0
    4.9487  -11.7430    3.7520 H   0  0  0  0  0  0  0  0  0  0  0  0
    2.8953  -11.0868    2.8087 H   0  0  0  0  0  0  0  0  0  0  0  0
    3.9561   -7.7405    3.6873 H   0  0  0  0  0  0  0  0  0  0  0  0
    3.9719   -5.9202    1.9884 H   0  0  0  0  0  0  0  0  0  0  0  0
    3.5454   -7.1393    0.7583 H   0  0  0  0  0  0  0  0  0  0  0  0
    5.0575   -7.2594    1.6225 H   0  0  0  0  0  0  0  0  0  0  0  0
    1.9278   -6.3385    3.6279 H   0  0  0  0  0  0  0  0  0  0  0  0
    2.2302   -6.0665   -0.7179 H   0  0  0  0  0  0  0  0  0  0  0  0
    0.9789   -4.8934   -0.7308 H   0  0  0  0  0  0  0  0  0  0  0  0
    1.8285   -2.8361   -1.7044 H   0  0  0  0  0  0  0  0  0  0  0  0
    3.0547   -3.8526   -2.4407 H   0  0  0  0  0  0  0  0  0  0  0  0
    3.5428   -2.4173   -1.5673 H   0  0  0  0  0  0  0  0  0  0  0  0
    1.8212   -2.6261    0.9795 H   0  0  0  0  0  0  0  0  0  0  0  0
    3.5494   -2.3018    0.9183 H   0  0  0  0  0  0  0  0  0  0  0  0
    2.9445   -3.6170    1.9004 H   0  0  0  0  0  0  0  0  0  0  0  0
    4.3048   -5.1874   -0.9781 H   0  0  0  0  0  0  0  0  0  0  0  0
   -1.0671   -8.5151    1.6991 H   0  0  0  0  0  0  0  0  0  0  0  0
   -1.9152   -7.9692    3.9502 H   0  0  0  0  0  0  0  0  0  0  0  0
   -0.1846   -7.8081    5.8587 H   0  0  0  0  0  0  0  0  0  0  0  0
    2.1505   -8.2353    5.2628 H   0  0  0  0  0  0  0  0  0  0  0  0
    1.2179  -10.4795    4.5539 H   0  0  0  0  0  0  0  0  0  0  0  0
   -0.2642  -10.6157    2.8374 H   0  0  0  0  0  0  0  0  0  0  0  0
    0.9405  -10.1199    1.6787 H   0  0  0  0  0  0  0  0  0  0  0  0
  1  2  1  0
  1 22  1  0
  1 23  1  0
  1 24  1  0
  2  3  1  0
  3 20  1  0
  3  4  1  0
  3 25  1  6
  4  5  1  0
  5  6  1  0
  5  7  1  0
  5 26  1  1
  6 27  1  0
  6 28  1  0
  6 29  1  0
  7 19  1  0
  7  8  1  0
  7 30  1  1
  8  9  2  3
  8 16  1  0
  9 10  1  0
 10 11  1  0
 11 12  1  0
 11 31  1  0
 11 32  1  0
 12 13  1  0
 12 14  1  0
 12 15  1  0
 13 33  1  0
 13 34  1  0
 13 35  1  0
 14 36  1  0
 14 37  1  0
 14 38  1  0
 15 39  1  0
 16 21  1  0
 16 17  1  0
 16 40  1  6
 17 18  2  0
 17 41  1  0
 18 19  1  0
 18 42  1  0
 19 20  1  0
 19 43  1  1
 20 21  1  0
 20 44  1  1
 21 45  1  0
 21 46  1  0
M  END
>  <i_m_ct_stereo_status>  (51) 
1

>  <s_m_source_file>  (51) 
/var/tmp/pbs.5076255.sched01/tmp98udq4tg/0t315e5yz.sdf

>  <i_m_source_file_index>  (51) 
22

>  <i_lp_mmshare_version>  (51) 
48012

>  <i_f3d_flags>  (51) 
0

>  <s_epik_input>  (51) 
W0NIM11bQ0BASF0xT1tDQEBIXShPW0NIM10pW0NIXShbQ0hdMltDSF0xMylbQ0gyXVtDQEBIXShbQ0hdPVtDSF0yKUNcMz1OXE9bQ0gyXUMoW0NIM10pKFtDSDNdKVtPSF0=

>  <s_epik_cmdline>  (51) 
J2VwaWtfcHl0aG9uJywgJy1waHQnLCAnMi4wJywgJy1waCcsICc3LjAnLCAnLXRuJywgJzgnLCAnLW1hJywgJzIwMCcsICctaW1hZScsICc8aW5maWxlLm1hZT4nLCAnLW9tYWUnLCAnPG91dGZpbGUubWFlPic=

>  <r_lp_tautomer_probability>  (51) 
1

>  <r_epik_Ionization_Penalty>  (51) 
4.92718e-08

>  <r_epik_Ionization_Penalty_Charging>  (51) 
0

>  <r_epik_Ionization_Penalty_Neutral>  (51) 
4.92718e-08

>  <r_epik_State_Penalty>  (51) 
-0

>  <r_epik_Charging_Adjusted_Penalty>  (51) 
0

>  <i_epik_Tot_Q>  (51) 
0

>  <i_epik_Tot_abs_Q>  (51) 
0

>  <s_epik_Chemistry_Notes>  (51) 
This compound has an imine and may undergo hydrolysis. This compound contains an acetal/aminal-like group ( X-CH(R)-Y where X, Y are N, S, or O) that may be acid/base labile, releasing an aldehyde.

>  <s_lp_Force_Field>  (51) 
OPLS3e

>  <r_lp_Energy>  (51) 
38.0821

>  <b_lp_Chiralities_Consistent>  (51) 
1

>  <s_lp_Variant>  (51) 
18:0-1

>  <s_i_glide_gridfile>  (51) 
pfpi4k_grid

>  <i_i_glide_lignum>  (51) 
22

>  <i_i_glide_rotatable_bonds>  (51) 
5

>  <r_i_docking_score>  (51) 
-2.91548

>  <r_i_glide_ligand_efficiency>  (51) 
-0.138832

>  <r_i_glide_ligand_efficiency_sa>  (51) 
-0.383027

>  <r_i_glide_ligand_efficiency_ln>  (51) 
-0.720846

>  <r_i_glide_gscore>  (51) 
-2.91548

>  <r_i_glide_lipo>  (51) 
-0.198277

>  <r_i_glide_hbond>  (51) 
0

>  <r_i_glide_metal>  (51) 
-0

>  <r_i_glide_rewards>  (51) 
-1.39518

>  <r_i_glide_evdw>  (51) 
-18.4372

>  <r_i_glide_ecoul>  (51) 
-5.16081

>  <r_i_glide_erotb>  (51) 
0.629371

>  <r_i_glide_esite>  (51) 
-0.255411

>  <r_i_glide_emodel>  (51) 
-26.6473

>  <r_i_glide_energy>  (51) 
-23.598

>  <r_i_glide_einternal>  (51) 
3.3956

>  <r_i_glide_intrahb_reward>  (51) 
-0

>  <i_i_glide_confnum>  (51) 
1

>  <i_i_glide_posenum>  (51) 
6

>  <r_i_glide_eff_state_penalty>  (51) 
0

>  <ligand_id>  (51) 
18

>  <original_smiles>  (51) 
COC1OC(C)C2C(=NOCC(C)(C)O)C3C=CC2C1C3

>  <smiles>  (51) 
[H]OC(C([H])([H])[H])(C([H])([H])[H])C([H])([H])ON=C1C2([H])C([H])=C([H])C3([H])C1([H])C([H])(C([H])([H])[H])OC([H])(OC([H])([H])[H])C3([H])C2([H])[H]

$$$$
18:0:2
     RDKit          3D

 46 48  0  0  1  0  0  0  0  0999 V2000
    1.8205   -9.1688    8.4394 C   0  0  0  0  0  0  0  0  0  0  0  0
    0.9058   -8.7843    7.4217 O   0  0  0  0  0  0  0  0  0  0  0  0
    1.2217   -9.3024    6.1651 C   0  0  2  0  0  0  0  0  0  0  0  0
    2.3851   -8.7404    5.6196 O   0  0  0  0  0  0  0  0  0  0  0  0
    2.3291   -7.3348    5.3618 C   0  0  1  0  0  0  0  0  0  0  0  0
    3.7400   -6.8706    4.9812 C   0  0  0  0  0  0  0  0  0  0  0  0
    1.1834   -6.9866    4.3604 C   0  0  1  0  0  0  0  0  0  0  0  0
    1.2852   -7.6058    2.9314 C   0  0  0  0  0  0  0  0  0  0  0  0
    2.0530   -7.2496    1.9779 N   0  0  0  0  0  0  0  0  0  0  0  0
    2.8853   -6.1690    2.3019 O   0  0  0  0  0  0  0  0  0  0  0  0
    3.6528   -5.8268    1.1534 C   0  0  0  0  0  0  0  0  0  0  0  0
    3.0690   -4.6097    0.4053 C   0  0  0  0  0  0  0  0  0  0  0  0
    2.6240   -3.4611    1.3272 C   0  0  0  0  0  0  0  0  0  0  0  0
    4.0928   -4.0828   -0.6205 C   0  0  0  0  0  0  0  0  0  0  0  0
    1.9440   -5.0561   -0.3243 O   0  0  0  0  0  0  0  0  0  0  0  0
    0.1839   -8.6477    2.6995 C   0  0  2  0  0  0  0  0  0  0  0  0
   -1.1309   -7.8998    2.8656 C   0  0  0  0  0  0  0  0  0  0  0  0
   -1.3046   -7.3007    4.0587 C   0  0  0  0  0  0  0  0  0  0  0  0
   -0.1419   -7.4797    5.0260 C   0  0  1  0  0  0  0  0  0  0  0  0
    0.0382   -9.0154    5.2165 C   0  0  1  0  0  0  0  0  0  0  0  0
    0.2577   -9.7077    3.8283 C   0  0  0  0  0  0  0  0  0  0  0  0
    1.4927   -8.7569    9.3938 H   0  0  0  0  0  0  0  0  0  0  0  0
    2.8225   -8.7892    8.2380 H   0  0  0  0  0  0  0  0  0  0  0  0
    1.8757  -10.2524    8.5536 H   0  0  0  0  0  0  0  0  0  0  0  0
    1.3698  -10.3798    6.2534 H   0  0  0  0  0  0  0  0  0  0  0  0
    2.0922   -6.8289    6.3017 H   0  0  0  0  0  0  0  0  0  0  0  0
    3.7551   -5.8127    4.7196 H   0  0  0  0  0  0  0  0  0  0  0  0
    4.1410   -7.4407    4.1432 H   0  0  0  0  0  0  0  0  0  0  0  0
    4.4214   -7.0086    5.8202 H   0  0  0  0  0  0  0  0  0  0  0  0
    1.1259   -5.9031    4.2437 H   0  0  0  0  0  0  0  0  0  0  0  0
    4.6298   -5.5560    1.5451 H   0  0  0  0  0  0  0  0  0  0  0  0
    3.8370   -6.6655    0.4773 H   0  0  0  0  0  0  0  0  0  0  0  0
    3.4491   -3.0815    1.9308 H   0  0  0  0  0  0  0  0  0  0  0  0
    1.8245   -3.7680    2.0023 H   0  0  0  0  0  0  0  0  0  0  0  0
    2.2483   -2.6227    0.7380 H   0  0  0  0  0  0  0  0  0  0  0  0
    4.9851   -3.6911   -0.1285 H   0  0  0  0  0  0  0  0  0  0  0  0
    3.6744   -3.2761   -1.2256 H   0  0  0  0  0  0  0  0  0  0  0  0
    4.4305   -4.8671   -1.2985 H   0  0  0  0  0  0  0  0  0  0  0  0
    2.2615   -5.4207   -1.1480 H   0  0  0  0  0  0  0  0  0  0  0  0
    0.2656   -9.0832    1.7065 H   0  0  0  0  0  0  0  0  0  0  0  0
   -1.8566   -7.8961    2.0705 H   0  0  0  0  0  0  0  0  0  0  0  0
   -2.1828   -6.7431    4.3484 H   0  0  0  0  0  0  0  0  0  0  0  0
   -0.3482   -6.9676    5.9687 H   0  0  0  0  0  0  0  0  0  0  0  0
   -0.8515   -9.4319    5.6948 H   0  0  0  0  0  0  0  0  0  0  0  0
   -0.5310  -10.4442    3.6771 H   0  0  0  0  0  0  0  0  0  0  0  0
    1.1963  -10.2627    3.7844 H   0  0  0  0  0  0  0  0  0  0  0  0
  1  2  1  0
  1 22  1  0
  1 23  1  0
  1 24  1  0
  2  3  1  0
  3 20  1  0
  3  4  1  0
  3 25  1  1
  4  5  1  0
  5  6  1  0
  5  7  1  0
  5 26  1  1
  6 27  1  0
  6 28  1  0
  6 29  1  0
  7 19  1  0
  7  8  1  0
  7 30  1  6
  8  9  2  3
  8 16  1  0
  9 10  1  0
 10 11  1  0
 11 12  1  0
 11 31  1  0
 11 32  1  0
 12 13  1  0
 12 14  1  0
 12 15  1  0
 13 33  1  0
 13 34  1  0
 13 35  1  0
 14 36  1  0
 14 37  1  0
 14 38  1  0
 15 39  1  0
 16 21  1  0
 16 17  1  0
 16 40  1  6
 17 18  2  0
 17 41  1  0
 18 19  1  0
 18 42  1  0
 19 20  1  0
 19 43  1  1
 20 21  1  0
 20 44  1  1
 21 45  1  0
 21 46  1  0
M  END
>  <i_m_ct_stereo_status>  (52) 
1

>  <s_m_source_file>  (52) 
/var/tmp/pbs.5076255.sched01/tmp98udq4tg/0t315e5yz.sdf

>  <i_m_source_file_index>  (52) 
22

>  <i_lp_mmshare_version>  (52) 
48012

>  <i_f3d_flags>  (52) 
0

>  <s_epik_input>  (52) 
W0NIM11bQ0BASF0xT1tDQEBIXShPW0NIM10pW0NIXShbQ0hdMltDSF0xMylbQ0gyXVtDQEBIXShbQ0hdPVtDSF0yKUNcMz1OXE9bQ0gyXUMoW0NIM10pKFtDSDNdKVtPSF0=

>  <s_epik_cmdline>  (52) 
J2VwaWtfcHl0aG9uJywgJy1waHQnLCAnMi4wJywgJy1waCcsICc3LjAnLCAnLXRuJywgJzgnLCAnLW1hJywgJzIwMCcsICctaW1hZScsICc8aW5maWxlLm1hZT4nLCAnLW9tYWUnLCAnPG91dGZpbGUubWFlPic=

>  <r_lp_tautomer_probability>  (52) 
1

>  <r_epik_Ionization_Penalty>  (52) 
4.92718e-08

>  <r_epik_Ionization_Penalty_Charging>  (52) 
0

>  <r_epik_Ionization_Penalty_Neutral>  (52) 
4.92718e-08

>  <r_epik_State_Penalty>  (52) 
-0

>  <r_epik_Charging_Adjusted_Penalty>  (52) 
0

>  <i_epik_Tot_Q>  (52) 
0

>  <i_epik_Tot_abs_Q>  (52) 
0

>  <s_epik_Chemistry_Notes>  (52) 
This compound has an imine and may undergo hydrolysis. This compound contains an acetal/aminal-like group ( X-CH(R)-Y where X, Y are N, S, or O) that may be acid/base labile, releasing an aldehyde.

>  <s_lp_Force_Field>  (52) 
OPLS3e

>  <r_lp_Energy>  (52) 
38.0821

>  <b_lp_Chiralities_Consistent>  (52) 
1

>  <s_lp_Variant>  (52) 
18:0-1

>  <s_i_glide_gridfile>  (52) 
pfpi4k_grid

>  <i_i_glide_lignum>  (52) 
22

>  <i_i_glide_rotatable_bonds>  (52) 
5

>  <r_i_docking_score>  (52) 
-2.79268

>  <r_i_glide_ligand_efficiency>  (52) 
-0.132985

>  <r_i_glide_ligand_efficiency_sa>  (52) 
-0.366895

>  <r_i_glide_ligand_efficiency_ln>  (52) 
-0.690485

>  <r_i_glide_gscore>  (52) 
-2.79268

>  <r_i_glide_lipo>  (52) 
-0.0316222

>  <r_i_glide_hbond>  (52) 
0

>  <r_i_glide_metal>  (52) 
-0

>  <r_i_glide_rewards>  (52) 
-1.39518

>  <r_i_glide_evdw>  (52) 
-16.8112

>  <r_i_glide_ecoul>  (52) 
-7.08249

>  <r_i_glide_erotb>  (52) 
0.629371

>  <r_i_glide_esite>  (52) 
-0.0923248

>  <r_i_glide_emodel>  (52) 
-26.2461

>  <r_i_glide_energy>  (52) 
-23.8936

>  <r_i_glide_einternal>  (52) 
5.22922

>  <r_i_glide_intrahb_reward>  (52) 
-0

>  <i_i_glide_confnum>  (52) 
2

>  <i_i_glide_posenum>  (52) 
22

>  <r_i_glide_eff_state_penalty>  (52) 
0

>  <ligand_id>  (52) 
18

>  <original_smiles>  (52) 
COC1OC(C)C2C(=NOCC(C)(C)O)C3C=CC2C1C3

>  <smiles>  (52) 
[H]OC(C([H])([H])[H])(C([H])([H])[H])C([H])([H])ON=C1C2([H])C([H])=C([H])C3([H])C1([H])C([H])(C([H])([H])[H])OC([H])(OC([H])([H])[H])C3([H])C2([H])[H]

$$$$
18:1:0
     RDKit          3D

 46 48  0  0  1  0  0  0  0  0999 V2000
    6.4498   -2.9015   -1.0699 C   0  0  0  0  0  0  0  0  0  0  0  0
    6.3454   -3.9200   -0.0901 O   0  0  0  0  0  0  0  0  0  0  0  0
    5.1907   -4.6921   -0.1954 C   0  0  2  0  0  0  0  0  0  0  0  0
    4.0345   -3.9979    0.1914 O   0  0  0  0  0  0  0  0  0  0  0  0
    3.9666   -3.6076    1.5646 C   0  0  1  0  0  0  0  0  0  0  0  0
    2.7264   -2.7253    1.7761 C   0  0  0  0  0  0  0  0  0  0  0  0
    4.0567   -4.8560    2.4819 C   0  0  1  0  0  0  0  0  0  0  0  0
    2.9118   -5.8894    2.2972 C   0  0  0  0  0  0  0  0  0  0  0  0
    1.6938   -5.6424    2.5915 N   0  0  0  0  0  0  0  0  0  0  0  0
    0.8436   -6.7303    2.3374 O   0  0  0  0  0  0  0  0  0  0  0  0
    0.1677   -7.0640    3.5443 C   0  0  0  0  0  0  0  0  0  0  0  0
   -0.5937   -8.3986    3.3838 C   0  0  0  0  0  0  0  0  0  0  0  0
   -1.6577   -8.3187    2.2803 C   0  0  0  0  0  0  0  0  0  0  0  0
    0.3767   -9.5631    3.1421 C   0  0  0  0  0  0  0  0  0  0  0  0
   -1.2664   -8.6375    4.6054 O   0  0  0  0  0  0  0  0  0  0  0  0
    3.4679   -7.2435    1.8006 C   0  0  2  0  0  0  0  0  0  0  0  0
    4.5190   -7.6817    2.8108 C   0  0  0  0  0  0  0  0  0  0  0  0
    5.5286   -6.8157    3.0099 C   0  0  0  0  0  0  0  0  0  0  0  0
    5.4272   -5.5351    2.1947 C   0  0  1  0  0  0  0  0  0  0  0  0
    5.3697   -5.9465    0.7018 C   0  0  1  0  0  0  0  0  0  0  0  0
    4.2073   -6.9665    0.4661 C   0  0  0  0  0  0  0  0  0  0  0  0
    7.3900   -2.3689   -0.9309 H   0  0  0  0  0  0  0  0  0  0  0  0
    5.6388   -2.1785   -0.9839 H   0  0  0  0  0  0  0  0  0  0  0  0
    6.4534   -3.3106   -2.0812 H   0  0  0  0  0  0  0  0  0  0  0  0
    5.0623   -5.0040   -1.2350 H   0  0  0  0  0  0  0  0  0  0  0  0
    4.8308   -2.9789    1.7820 H   0  0  0  0  0  0  0  0  0  0  0  0
    2.5720   -2.5012    2.8310 H   0  0  0  0  0  0  0  0  0  0  0  0
    1.8238   -3.1994    1.3977 H   0  0  0  0  0  0  0  0  0  0  0  0
    2.8348   -1.7781    1.2478 H   0  0  0  0  0  0  0  0  0  0  0  0
    4.0381   -4.5363    3.5253 H   0  0  0  0  0  0  0  0  0  0  0  0
    0.8942   -7.1662    4.3527 H   0  0  0  0  0  0  0  0  0  0  0  0
   -0.5082   -6.2569    3.8291 H   0  0  0  0  0  0  0  0  0  0  0  0
   -1.2048   -8.1051    1.3108 H   0  0  0  0  0  0  0  0  0  0  0  0
   -2.3863   -7.5360    2.4903 H   0  0  0  0  0  0  0  0  0  0  0  0
   -2.1978   -9.2613    2.1857 H   0  0  0  0  0  0  0  0  0  0  0  0
    0.9236   -9.4379    2.2079 H   0  0  0  0  0  0  0  0  0  0  0  0
   -0.1517  -10.5139    3.0815 H   0  0  0  0  0  0  0  0  0  0  0  0
    1.1086   -9.6396    3.9460 H   0  0  0  0  0  0  0  0  0  0  0  0
   -1.5555   -9.5587    4.6570 H   0  0  0  0  0  0  0  0  0  0  0  0
    2.7081   -8.0193    1.6880 H   0  0  0  0  0  0  0  0  0  0  0  0
    4.4338   -8.6384    3.3051 H   0  0  0  0  0  0  0  0  0  0  0  0
    6.3628   -6.9812    3.6780 H   0  0  0  0  0  0  0  0  0  0  0  0
    6.2725   -4.8776    2.4106 H   0  0  0  0  0  0  0  0  0  0  0  0
    6.3182   -6.4106    0.4270 H   0  0  0  0  0  0  0  0  0  0  0  0
    4.6141   -7.9043    0.0803 H   0  0  0  0  0  0  0  0  0  0  0  0
    3.5094   -6.6028   -0.2895 H   0  0  0  0  0  0  0  0  0  0  0  0
  1  2  1  0
  1 22  1  0
  1 23  1  0
  1 24  1  0
  2  3  1  0
  3 20  1  0
  3  4  1  0
  3 25  1  6
  4  5  1  0
  5  6  1  0
  5  7  1  0
  5 26  1  1
  6 27  1  0
  6 28  1  0
  6 29  1  0
  7 19  1  0
  7  8  1  0
  7 30  1  1
  8  9  2  3
  8 16  1  0
  9 10  1  0
 10 11  1  0
 11 12  1  0
 11 31  1  0
 11 32  1  0
 12 13  1  0
 12 14  1  0
 12 15  1  0
 13 33  1  0
 13 34  1  0
 13 35  1  0
 14 36  1  0
 14 37  1  0
 14 38  1  0
 15 39  1  0
 16 21  1  0
 16 17  1  0
 16 40  1  6
 17 18  2  0
 17 41  1  0
 18 19  1  0
 18 42  1  0
 19 20  1  0
 19 43  1  6
 20 21  1  0
 20 44  1  6
 21 45  1  0
 21 46  1  0
M  END
>  <i_m_ct_stereo_status>  (53) 
1

>  <s_m_source_file>  (53) 
/var/tmp/pbs.5076255.sched01/tmp98udq4tg/0t315e5yz.sdf

>  <i_m_source_file_index>  (53) 
23

>  <i_lp_mmshare_version>  (53) 
48012

>  <i_f3d_flags>  (53) 
0

>  <s_epik_input>  (53) 
W0NIM11bQ0BASF0xT1tDQEBIXShPW0NIM10pW0NIXShbQ0hdMltDSF0xMylbQ0gyXVtDQEBIXShbQ0hdPVtDSF0yKUNcMz1OXE9bQ0gyXUMoW0NIM10pKFtDSDNdKVtPSF0=

>  <s_epik_cmdline>  (53) 
J2VwaWtfcHl0aG9uJywgJy1waHQnLCAnMi4wJywgJy1waCcsICc3LjAnLCAnLXRuJywgJzgnLCAnLW1hJywgJzIwMCcsICctaW1hZScsICc8aW5maWxlLm1hZT4nLCAnLW9tYWUnLCAnPG91dGZpbGUubWFlPic=

>  <r_lp_tautomer_probability>  (53) 
1

>  <r_epik_Ionization_Penalty>  (53) 
4.92718e-08

>  <r_epik_Ionization_Penalty_Charging>  (53) 
0

>  <r_epik_Ionization_Penalty_Neutral>  (53) 
4.92718e-08

>  <r_epik_State_Penalty>  (53) 
-0

>  <r_epik_Charging_Adjusted_Penalty>  (53) 
0

>  <i_epik_Tot_Q>  (53) 
0

>  <i_epik_Tot_abs_Q>  (53) 
0

>  <s_epik_Chemistry_Notes>  (53) 
This compound has an imine and may undergo hydrolysis. This compound contains an acetal/aminal-like group ( X-CH(R)-Y where X, Y are N, S, or O) that may be acid/base labile, releasing an aldehyde.

>  <s_lp_Force_Field>  (53) 
OPLS3e

>  <r_lp_Energy>  (53) 
37.0367

>  <b_lp_Chiralities_Consistent>  (53) 
1

>  <s_lp_Variant>  (53) 
18:0-2

>  <s_i_glide_gridfile>  (53) 
pfpi4k_grid

>  <i_i_glide_lignum>  (53) 
23

>  <i_i_glide_rotatable_bonds>  (53) 
5

>  <r_i_docking_score>  (53) 
-3.21653

>  <r_i_glide_ligand_efficiency>  (53) 
-0.153168

>  <r_i_glide_ligand_efficiency_sa>  (53) 
-0.422579

>  <r_i_glide_ligand_efficiency_ln>  (53) 
-0.795281

>  <r_i_glide_gscore>  (53) 
-3.21653

>  <r_i_glide_lipo>  (53) 
-0.452394

>  <r_i_glide_hbond>  (53) 
-0.16

>  <r_i_glide_metal>  (53) 
-0

>  <r_i_glide_rewards>  (53) 
-1.44879

>  <r_i_glide_evdw>  (53) 
-18.9246

>  <r_i_glide_ecoul>  (53) 
-4.99389

>  <r_i_glide_erotb>  (53) 
0.629371

>  <r_i_glide_esite>  (53) 
-0.0894062

>  <r_i_glide_emodel>  (53) 
-27.9355

>  <r_i_glide_energy>  (53) 
-23.9185

>  <r_i_glide_einternal>  (53) 
3.04288

>  <r_i_glide_intrahb_reward>  (53) 
-0

>  <i_i_glide_confnum>  (53) 
4

>  <i_i_glide_posenum>  (53) 
2

>  <r_i_glide_eff_state_penalty>  (53) 
0

>  <ligand_id>  (53) 
18

>  <original_smiles>  (53) 
COC1OC(C)C2C(=NOCC(C)(C)O)C3C=CC2C1C3

>  <smiles>  (53) 
[H]OC(C([H])([H])[H])(C([H])([H])[H])C([H])([H])ON=C1C2([H])C([H])=C([H])C3([H])C1([H])C([H])(C([H])([H])[H])OC([H])(OC([H])([H])[H])C3([H])C2([H])[H]

$$$$
18:1:1
     RDKit          3D

 46 48  0  0  1  0  0  0  0  0999 V2000
    3.9042   -1.3837   -1.1624 C   0  0  0  0  0  0  0  0  0  0  0  0
    4.5635   -2.5107   -0.6062 O   0  0  0  0  0  0  0  0  0  0  0  0
    3.7333   -3.6117   -0.4027 C   0  0  2  0  0  0  0  0  0  0  0  0
    2.7513   -3.3877    0.5770 O   0  0  0  0  0  0  0  0  0  0  0  0
    3.2395   -3.1431    1.8972 C   0  0  1  0  0  0  0  0  0  0  0  0
    2.0637   -2.7306    2.7978 C   0  0  0  0  0  0  0  0  0  0  0  0
    4.0599   -4.3624    2.3939 C   0  0  1  0  0  0  0  0  0  0  0  0
    3.2647   -5.6978    2.4811 C   0  0  0  0  0  0  0  0  0  0  0  0
    2.2932   -5.8759    3.2879 N   0  0  0  0  0  0  0  0  0  0  0  0
    1.7015   -7.1464    3.1705 O   0  0  0  0  0  0  0  0  0  0  0  0
    0.8310   -7.3495    4.2790 C   0  0  0  0  0  0  0  0  0  0  0  0
    0.1757   -8.7480    4.1954 C   0  0  0  0  0  0  0  0  0  0  0  0
   -0.7931   -8.8470    3.0073 C   0  0  0  0  0  0  0  0  0  0  0  0
    1.2366   -9.8566    4.1510 C   0  0  0  0  0  0  0  0  0  0  0  0
   -0.5844   -8.9505    5.3722 O   0  0  0  0  0  0  0  0  0  0  0  0
    3.8481   -6.7460    1.5090 C   0  0  2  0  0  0  0  0  0  0  0  0
    5.3244   -6.8962    1.8610 C   0  0  0  0  0  0  0  0  0  0  0  0
    6.0539   -5.7665    1.8034 C   0  0  0  0  0  0  0  0  0  0  0  0
    5.2617   -4.5295    1.4140 C   0  0  1  0  0  0  0  0  0  0  0  0
    4.6158   -4.8107    0.0259 C   0  0  1  0  0  0  0  0  0  0  0  0
    3.7823   -6.1333    0.0846 C   0  0  0  0  0  0  0  0  0  0  0  0
    4.6274   -0.5862   -1.3300 H   0  0  0  0  0  0  0  0  0  0  0  0
    3.1409   -1.0011   -0.4850 H   0  0  0  0  0  0  0  0  0  0  0  0
    3.4380   -1.6092   -2.1229 H   0  0  0  0  0  0  0  0  0  0  0  0
    3.2299   -3.8434   -1.3456 H   0  0  0  0  0  0  0  0  0  0  0  0
    3.9120   -2.2837    1.8648 H   0  0  0  0  0  0  0  0  0  0  0  0
    2.3689   -2.6529    3.8419 H   0  0  0  0  0  0  0  0  0  0  0  0
    1.2399   -3.4400    2.7432 H   0  0  0  0  0  0  0  0  0  0  0  0
    1.6740   -1.7590    2.4943 H   0  0  0  0  0  0  0  0  0  0  0  0
    4.4519   -4.1506    3.3884 H   0  0  0  0  0  0  0  0  0  0  0  0
    1.3979   -7.2561    5.2063 H   0  0  0  0  0  0  0  0  0  0  0  0
    0.0649   -6.5735    4.3040 H   0  0  0  0  0  0  0  0  0  0  0  0
   -0.2753   -8.6827    2.0618 H   0  0  0  0  0  0  0  0  0  0  0  0
   -1.5927   -8.1091    3.0845 H   0  0  0  0  0  0  0  0  0  0  0  0
   -1.2565   -9.8334    2.9602 H   0  0  0  0  0  0  0  0  0  0  0  0
    1.8600   -9.7719    3.2609 H   0  0  0  0  0  0  0  0  0  0  0  0
    0.7796  -10.8459    4.1390 H   0  0  0  0  0  0  0  0  0  0  0  0
    1.8941   -9.8064    5.0191 H   0  0  0  0  0  0  0  0  0  0  0  0
   -1.1188   -9.7454    5.2768 H   0  0  0  0  0  0  0  0  0  0  0  0
    3.3499   -7.7146    1.5624 H   0  0  0  0  0  0  0  0  0  0  0  0
    5.7225   -7.8656    2.1197 H   0  0  0  0  0  0  0  0  0  0  0  0
    7.1121   -5.7031    2.0073 H   0  0  0  0  0  0  0  0  0  0  0  0
    5.9103   -3.6527    1.3957 H   0  0  0  0  0  0  0  0  0  0  0  0
    5.3992   -4.9228   -0.7295 H   0  0  0  0  0  0  0  0  0  0  0  0
    4.2097   -6.8428   -0.6259 H   0  0  0  0  0  0  0  0  0  0  0  0
    2.7456   -5.9710   -0.2178 H   0  0  0  0  0  0  0  0  0  0  0  0
  1  2  1  0
  1 22  1  0
  1 23  1  0
  1 24  1  0
  2  3  1  0
  3 20  1  0
  3  4  1  0
  3 25  1  6
  4  5  1  0
  5  6  1  0
  5  7  1  0
  5 26  1  6
  6 27  1  0
  6 28  1  0
  6 29  1  0
  7 19  1  0
  7  8  1  0
  7 30  1  1
  8  9  2  3
  8 16  1  0
  9 10  1  0
 10 11  1  0
 11 12  1  0
 11 31  1  0
 11 32  1  0
 12 13  1  0
 12 14  1  0
 12 15  1  0
 13 33  1  0
 13 34  1  0
 13 35  1  0
 14 36  1  0
 14 37  1  0
 14 38  1  0
 15 39  1  0
 16 21  1  0
 16 17  1  0
 16 40  1  6
 17 18  2  0
 17 41  1  0
 18 19  1  0
 18 42  1  0
 19 20  1  0
 19 43  1  6
 20 21  1  0
 20 44  1  6
 21 45  1  0
 21 46  1  0
M  END
>  <i_m_ct_stereo_status>  (54) 
1

>  <s_m_source_file>  (54) 
/var/tmp/pbs.5076255.sched01/tmp98udq4tg/0t315e5yz.sdf

>  <i_m_source_file_index>  (54) 
23

>  <i_lp_mmshare_version>  (54) 
48012

>  <i_f3d_flags>  (54) 
0

>  <s_epik_input>  (54) 
W0NIM11bQ0BASF0xT1tDQEBIXShPW0NIM10pW0NIXShbQ0hdMltDSF0xMylbQ0gyXVtDQEBIXShbQ0hdPVtDSF0yKUNcMz1OXE9bQ0gyXUMoW0NIM10pKFtDSDNdKVtPSF0=

>  <s_epik_cmdline>  (54) 
J2VwaWtfcHl0aG9uJywgJy1waHQnLCAnMi4wJywgJy1waCcsICc3LjAnLCAnLXRuJywgJzgnLCAnLW1hJywgJzIwMCcsICctaW1hZScsICc8aW5maWxlLm1hZT4nLCAnLW9tYWUnLCAnPG91dGZpbGUubWFlPic=

>  <r_lp_tautomer_probability>  (54) 
1

>  <r_epik_Ionization_Penalty>  (54) 
4.92718e-08

>  <r_epik_Ionization_Penalty_Charging>  (54) 
0

>  <r_epik_Ionization_Penalty_Neutral>  (54) 
4.92718e-08

>  <r_epik_State_Penalty>  (54) 
-0

>  <r_epik_Charging_Adjusted_Penalty>  (54) 
0

>  <i_epik_Tot_Q>  (54) 
0

>  <i_epik_Tot_abs_Q>  (54) 
0

>  <s_epik_Chemistry_Notes>  (54) 
This compound has an imine and may undergo hydrolysis. This compound contains an acetal/aminal-like group ( X-CH(R)-Y where X, Y are N, S, or O) that may be acid/base labile, releasing an aldehyde.

>  <s_lp_Force_Field>  (54) 
OPLS3e

>  <r_lp_Energy>  (54) 
37.0367

>  <b_lp_Chiralities_Consistent>  (54) 
1

>  <s_lp_Variant>  (54) 
18:0-2

>  <s_i_glide_gridfile>  (54) 
pfpi4k_grid

>  <i_i_glide_lignum>  (54) 
23

>  <i_i_glide_rotatable_bonds>  (54) 
5

>  <r_i_docking_score>  (54) 
-2.82768

>  <r_i_glide_ligand_efficiency>  (54) 
-0.134651

>  <r_i_glide_ligand_efficiency_sa>  (54) 
-0.371493

>  <r_i_glide_ligand_efficiency_ln>  (54) 
-0.699138

>  <r_i_glide_gscore>  (54) 
-2.82768

>  <r_i_glide_lipo>  (54) 
-0.224554

>  <r_i_glide_hbond>  (54) 
-0.16

>  <r_i_glide_metal>  (54) 
-0

>  <r_i_glide_rewards>  (54) 
-1.40958

>  <r_i_glide_evdw>  (54) 
-16.8602

>  <r_i_glide_ecoul>  (54) 
-5.37645

>  <r_i_glide_erotb>  (54) 
0.629371

>  <r_i_glide_esite>  (54) 
-0.0134443

>  <r_i_glide_emodel>  (54) 
-27.0285

>  <r_i_glide_energy>  (54) 
-22.2366

>  <r_i_glide_einternal>  (54) 
0.329689

>  <r_i_glide_intrahb_reward>  (54) 
-0

>  <i_i_glide_confnum>  (54) 
6

>  <i_i_glide_posenum>  (54) 
27

>  <r_i_glide_eff_state_penalty>  (54) 
0

>  <ligand_id>  (54) 
18

>  <original_smiles>  (54) 
COC1OC(C)C2C(=NOCC(C)(C)O)C3C=CC2C1C3

>  <smiles>  (54) 
[H]OC(C([H])([H])[H])(C([H])([H])[H])C([H])([H])ON=C1C2([H])C([H])=C([H])C3([H])C1([H])C([H])(C([H])([H])[H])OC([H])(OC([H])([H])[H])C3([H])C2([H])[H]

$$$$
18:1:2
     RDKit          3D

 46 48  0  0  1  0  0  0  0  0999 V2000
    1.5395    2.1598    2.3368 C   0  0  0  0  0  0  0  0  0  0  0  0
    2.5050    1.1193    2.3654 O   0  0  0  0  0  0  0  0  0  0  0  0
    2.0525   -0.0771    1.8157 C   0  0  2  0  0  0  0  0  0  0  0  0
    1.1283   -0.7399    2.6386 O   0  0  0  0  0  0  0  0  0  0  0  0
    1.6348   -1.1909    3.8943 C   0  0  1  0  0  0  0  0  0  0  0  0
    0.4681   -1.7385    4.7293 C   0  0  0  0  0  0  0  0  0  0  0  0
    2.8183   -2.1729    3.6804 C   0  0  1  0  0  0  0  0  0  0  0  0
    2.4679   -3.4750    2.9030 C   0  0  0  0  0  0  0  0  0  0  0  0
    1.6712   -4.3635    3.3552 N   0  0  0  0  0  0  0  0  0  0  0  0
    1.5132   -5.4535    2.4844 O   0  0  0  0  0  0  0  0  0  0  0  0
    0.8157   -6.4825    3.1738 C   0  0  0  0  0  0  0  0  0  0  0  0
    0.7107   -7.7380    2.2854 C   0  0  0  0  0  0  0  0  0  0  0  0
    2.0630   -8.1413    1.6790 C   0  0  0  0  0  0  0  0  0  0  0  0
    0.0930   -8.9140    3.0614 C   0  0  0  0  0  0  0  0  0  0  0  0
   -0.1902   -7.4478    1.2423 O   0  0  0  0  0  0  0  0  0  0  0  0
    3.2521   -3.5495    1.5749 C   0  0  2  0  0  0  0  0  0  0  0  0
    4.7286   -3.4383    1.9331 C   0  0  0  0  0  0  0  0  0  0  0  0
    5.0785   -2.3297    2.6050 C   0  0  0  0  0  0  0  0  0  0  0  0
    3.9269   -1.3876    2.9162 C   0  0  1  0  0  0  0  0  0  0  0  0
    3.2796   -0.9907    1.5626 C   0  0  1  0  0  0  0  0  0  0  0  0
    2.8831   -2.2786    0.7630 C   0  0  0  0  0  0  0  0  0  0  0  0
    1.9760    3.0732    2.7383 H   0  0  0  0  0  0  0  0  0  0  0  0
    0.6664    1.9088    2.9372 H   0  0  0  0  0  0  0  0  0  0  0  0
    1.2132    2.3759    1.3209 H   0  0  0  0  0  0  0  0  0  0  0  0
    1.5530    0.1461    0.8784 H   0  0  0  0  0  0  0  0  0  0  0  0
    2.0197   -0.3247    4.4348 H   0  0  0  0  0  0  0  0  0  0  0  0
    0.8232   -2.1986    5.6518 H   0  0  0  0  0  0  0  0  0  0  0  0
   -0.1117   -2.4800    4.1795 H   0  0  0  0  0  0  0  0  0  0  0  0
   -0.2134   -0.9327    5.0024 H   0  0  0  0  0  0  0  0  0  0  0  0
    3.2126   -2.4713    4.6522 H   0  0  0  0  0  0  0  0  0  0  0  0
    1.3727   -6.7341    4.0766 H   0  0  0  0  0  0  0  0  0  0  0  0
   -0.1718   -6.1466    3.4950 H   0  0  0  0  0  0  0  0  0  0  0  0
    2.7893   -8.3657    2.4586 H   0  0  0  0  0  0  0  0  0  0  0  0
    2.4785   -7.3457    1.0612 H   0  0  0  0  0  0  0  0  0  0  0  0
    1.9723   -9.0300    1.0539 H   0  0  0  0  0  0  0  0  0  0  0  0
    0.7239   -9.2064    3.9021 H   0  0  0  0  0  0  0  0  0  0  0  0
   -0.0292   -9.7946    2.4263 H   0  0  0  0  0  0  0  0  0  0  0  0
   -0.8916   -8.6618    3.4608 H   0  0  0  0  0  0  0  0  0  0  0  0
   -0.2160   -8.2130    0.6761 H   0  0  0  0  0  0  0  0  0  0  0  0
    3.0685   -4.4634    1.0086 H   0  0  0  0  0  0  0  0  0  0  0  0
    5.4194   -4.2107    1.6299 H   0  0  0  0  0  0  0  0  0  0  0  0
    6.0876   -2.0870    2.9090 H   0  0  0  0  0  0  0  0  0  0  0  0
    4.2846   -0.5201    3.4727 H   0  0  0  0  0  0  0  0  0  0  0  0
    3.9916   -0.4128    0.9680 H   0  0  0  0  0  0  0  0  0  0  0  0
    3.4242   -2.2885   -0.1857 H   0  0  0  0  0  0  0  0  0  0  0  0
    1.8228   -2.2905    0.5101 H   0  0  0  0  0  0  0  0  0  0  0  0
  1  2  1  0
  1 22  1  0
  1 23  1  0
  1 24  1  0
  2  3  1  0
  3 20  1  0
  3  4  1  0
  3 25  1  6
  4  5  1  0
  5  6  1  0
  5  7  1  0
  5 26  1  1
  6 27  1  0
  6 28  1  0
  6 29  1  0
  7 19  1  0
  7  8  1  0
  7 30  1  1
  8  9  2  3
  8 16  1  0
  9 10  1  0
 10 11  1  0
 11 12  1  0
 11 31  1  0
 11 32  1  0
 12 13  1  0
 12 14  1  0
 12 15  1  0
 13 33  1  0
 13 34  1  0
 13 35  1  0
 14 36  1  0
 14 37  1  0
 14 38  1  0
 15 39  1  0
 16 21  1  0
 16 17  1  0
 16 40  1  6
 17 18  2  0
 17 41  1  0
 18 19  1  0
 18 42  1  0
 19 20  1  0
 19 43  1  1
 20 21  1  0
 20 44  1  6
 21 45  1  0
 21 46  1  0
M  END
>  <i_m_ct_stereo_status>  (55) 
1

>  <s_m_source_file>  (55) 
/var/tmp/pbs.5076255.sched01/tmp98udq4tg/0t315e5yz.sdf

>  <i_m_source_file_index>  (55) 
23

>  <i_lp_mmshare_version>  (55) 
48012

>  <i_f3d_flags>  (55) 
0

>  <s_epik_input>  (55) 
W0NIM11bQ0BASF0xT1tDQEBIXShPW0NIM10pW0NIXShbQ0hdMltDSF0xMylbQ0gyXVtDQEBIXShbQ0hdPVtDSF0yKUNcMz1OXE9bQ0gyXUMoW0NIM10pKFtDSDNdKVtPSF0=

>  <s_epik_cmdline>  (55) 
J2VwaWtfcHl0aG9uJywgJy1waHQnLCAnMi4wJywgJy1waCcsICc3LjAnLCAnLXRuJywgJzgnLCAnLW1hJywgJzIwMCcsICctaW1hZScsICc8aW5maWxlLm1hZT4nLCAnLW9tYWUnLCAnPG91dGZpbGUubWFlPic=

>  <r_lp_tautomer_probability>  (55) 
1

>  <r_epik_Ionization_Penalty>  (55) 
4.92718e-08

>  <r_epik_Ionization_Penalty_Charging>  (55) 
0

>  <r_epik_Ionization_Penalty_Neutral>  (55) 
4.92718e-08

>  <r_epik_State_Penalty>  (55) 
-0

>  <r_epik_Charging_Adjusted_Penalty>  (55) 
0

>  <i_epik_Tot_Q>  (55) 
0

>  <i_epik_Tot_abs_Q>  (55) 
0

>  <s_epik_Chemistry_Notes>  (55) 
This compound has an imine and may undergo hydrolysis. This compound contains an acetal/aminal-like group ( X-CH(R)-Y where X, Y are N, S, or O) that may be acid/base labile, releasing an aldehyde.

>  <s_lp_Force_Field>  (55) 
OPLS3e

>  <r_lp_Energy>  (55) 
37.0367

>  <b_lp_Chiralities_Consistent>  (55) 
1

>  <s_lp_Variant>  (55) 
18:0-2

>  <s_i_glide_gridfile>  (55) 
pfpi4k_grid

>  <i_i_glide_lignum>  (55) 
23

>  <i_i_glide_rotatable_bonds>  (55) 
5

>  <r_i_docking_score>  (55) 
-2.5493

>  <r_i_glide_ligand_efficiency>  (55) 
-0.121395

>  <r_i_glide_ligand_efficiency_sa>  (55) 
-0.334921

>  <r_i_glide_ligand_efficiency_ln>  (55) 
-0.63031

>  <r_i_glide_gscore>  (55) 
-2.5493

>  <r_i_glide_lipo>  (55) 
-0.0935179

>  <r_i_glide_hbond>  (55) 
0

>  <r_i_glide_metal>  (55) 
-0

>  <r_i_glide_rewards>  (55) 
-1.39518

>  <r_i_glide_evdw>  (55) 
-17.9061

>  <r_i_glide_ecoul>  (55) 
-4.54651

>  <r_i_glide_erotb>  (55) 
0.629371

>  <r_i_glide_esite>  (55) 
-0.112698

>  <r_i_glide_emodel>  (55) 
-25.7852

>  <r_i_glide_energy>  (55) 
-22.4526

>  <r_i_glide_einternal>  (55) 
2.1894

>  <r_i_glide_intrahb_reward>  (55) 
-0

>  <i_i_glide_confnum>  (55) 
5

>  <i_i_glide_posenum>  (55) 
6

>  <r_i_glide_eff_state_penalty>  (55) 
0

>  <ligand_id>  (55) 
18

>  <original_smiles>  (55) 
COC1OC(C)C2C(=NOCC(C)(C)O)C3C=CC2C1C3

>  <smiles>  (55) 
[H]OC(C([H])([H])[H])(C([H])([H])[H])C([H])([H])ON=C1C2([H])C([H])=C([H])C3([H])C1([H])C([H])(C([H])([H])[H])OC([H])(OC([H])([H])[H])C3([H])C2([H])[H]

$$$$
18:2:0
     RDKit          3D

 46 48  0  0  1  0  0  0  0  0999 V2000
    5.4033   -0.4218    3.3900 C   0  0  0  0  0  0  0  0  0  0  0  0
    4.5643   -1.4902    3.8174 O   0  0  0  0  0  0  0  0  0  0  0  0
    3.5389   -1.7853    2.9195 C   0  0  2  0  0  0  0  0  0  0  0  0
    2.4599   -2.4783    3.5805 O   0  0  0  0  0  0  0  0  0  0  0  0
    2.4825   -3.9398    3.7179 C   0  0  1  0  0  0  0  0  0  0  0  0
    1.0987   -4.4103    4.1866 C   0  0  0  0  0  0  0  0  0  0  0  0
    3.0950   -4.7154    2.4815 C   0  0  2  0  0  0  0  0  0  0  0  0
    2.6364   -5.0633    1.0161 C   0  0  0  0  0  0  0  0  0  0  0  0
    1.6906   -5.8519    0.6720 N   0  0  0  0  0  0  0  0  0  0  0  0
    1.0088   -6.3695    1.7900 O   0  0  0  0  0  0  0  0  0  0  0  0
    0.2357   -7.4860    1.3670 C   0  0  0  0  0  0  0  0  0  0  0  0
   -0.4751   -8.1452    2.5703 C   0  0  0  0  0  0  0  0  0  0  0  0
    0.5320   -8.8651    3.4802 C   0  0  0  0  0  0  0  0  0  0  0  0
   -1.3523   -7.1580    3.3509 C   0  0  0  0  0  0  0  0  0  0  0  0
   -1.3705   -9.1154    2.0812 O   0  0  0  0  0  0  0  0  0  0  0  0
    3.5623   -4.3686   -0.0475 C   0  0  2  0  0  0  0  0  0  0  0  0
    4.9236   -4.9876    0.1948 C   0  0  0  0  0  0  0  0  0  0  0  0
    5.4123   -4.8018    1.4346 C   0  0  0  0  0  0  0  0  0  0  0  0
    4.4912   -4.0390    2.3786 C   0  0  1  0  0  0  0  0  0  0  0  0
    4.1251   -2.6628    1.7703 C   0  0  2  0  0  0  0  0  0  0  0  0
    3.7673   -2.8190    0.2383 C   0  0  0  0  0  0  0  0  0  0  0  0
    6.1965   -0.2475    4.1165 H   0  0  0  0  0  0  0  0  0  0  0  0
    4.8449    0.5112    3.2866 H   0  0  0  0  0  0  0  0  0  0  0  0
    5.8768   -0.6456    2.4324 H   0  0  0  0  0  0  0  0  0  0  0  0
    3.1201   -0.8323    2.5651 H   0  0  0  0  0  0  0  0  0  0  0  0
    3.1435   -4.1594    4.5578 H   0  0  0  0  0  0  0  0  0  0  0  0
    1.1277   -5.4895    4.3267 H   0  0  0  0  0  0  0  0  0  0  0  0
    0.3280   -4.1605    3.4575 H   0  0  0  0  0  0  0  0  0  0  0  0
    0.8188   -3.9477    5.1349 H   0  0  0  0  0  0  0  0  0  0  0  0
    2.2204   -4.1428    2.1959 H   0  0  0  0  0  0  0  0  0  0  0  0
   -0.4937   -7.1720    0.6186 H   0  0  0  0  0  0  0  0  0  0  0  0
    0.8995   -8.2071    0.8826 H   0  0  0  0  0  0  0  0  0  0  0  0
    1.2572   -8.1668    3.8989 H   0  0  0  0  0  0  0  0  0  0  0  0
    1.0951   -9.6289    2.9391 H   0  0  0  0  0  0  0  0  0  0  0  0
    0.0335   -9.3628    4.3135 H   0  0  0  0  0  0  0  0  0  0  0  0
   -0.7610   -6.3460    3.7650 H   0  0  0  0  0  0  0  0  0  0  0  0
   -1.8500   -7.6541    4.1862 H   0  0  0  0  0  0  0  0  0  0  0  0
   -2.1194   -6.7290    2.7059 H   0  0  0  0  0  0  0  0  0  0  0  0
   -0.9084   -9.6643    1.4581 H   0  0  0  0  0  0  0  0  0  0  0  0
    3.2315   -4.5590   -1.0635 H   0  0  0  0  0  0  0  0  0  0  0  0
    5.4338   -5.5067   -0.6019 H   0  0  0  0  0  0  0  0  0  0  0  0
    6.3693   -5.1564    1.7821 H   0  0  0  0  0  0  0  0  0  0  0  0
    4.9865   -3.9481    3.3425 H   0  0  0  0  0  0  0  0  0  0  0  0
    3.0708   -2.5615    1.5858 H   0  0  0  0  0  0  0  0  0  0  0  0
    4.6353   -2.4882   -0.3335 H   0  0  0  0  0  0  0  0  0  0  0  0
    2.9468   -2.2104   -0.1966 H   0  0  0  0  0  0  0  0  0  0  0  0
  1  2  1  0
  1 22  1  0
  1 23  1  0
  1 24  1  0
  2  3  1  0
  3 20  1  0
  3  4  1  0
  3 25  1  6
  4  5  1  0
  5  6  1  0
  5  7  1  0
  5 26  1  1
  6 27  1  0
  6 28  1  0
  6 29  1  0
  7 19  1  0
  7  8  1  0
  7 30  1  1
  8  9  2  3
  8 16  1  0
  9 10  1  0
 10 11  1  0
 11 12  1  0
 11 31  1  0
 11 32  1  0
 12 13  1  0
 12 14  1  0
 12 15  1  0
 13 33  1  0
 13 34  1  0
 13 35  1  0
 14 36  1  0
 14 37  1  0
 14 38  1  0
 15 39  1  0
 16 21  1  0
 16 17  1  0
 16 40  1  6
 17 18  2  0
 17 41  1  0
 18 19  1  0
 18 42  1  0
 19 20  1  0
 19 43  1  1
 20 21  1  0
 20 44  1  6
 21 45  1  0
 21 46  1  0
M  END
>  <i_m_ct_stereo_status>  (56) 
1

>  <s_m_source_file>  (56) 
/var/tmp/pbs.5076255.sched01/tmp98udq4tg/0t315e5yz.sdf

>  <i_m_source_file_index>  (56) 
24

>  <i_lp_mmshare_version>  (56) 
48012

>  <i_f3d_flags>  (56) 
0

>  <s_epik_input>  (56) 
W0NIM11bQ0BASF0xT1tDQEBIXShPW0NIM10pW0NIXShbQ0hdMltDSF0xMylbQ0gyXVtDQEBIXShbQ0hdPVtDSF0yKUNcMz1OXE9bQ0gyXUMoW0NIM10pKFtDSDNdKVtPSF0=

>  <s_epik_cmdline>  (56) 
J2VwaWtfcHl0aG9uJywgJy1waHQnLCAnMi4wJywgJy1waCcsICc3LjAnLCAnLXRuJywgJzgnLCAnLW1hJywgJzIwMCcsICctaW1hZScsICc8aW5maWxlLm1hZT4nLCAnLW9tYWUnLCAnPG91dGZpbGUubWFlPic=

>  <r_lp_tautomer_probability>  (56) 
1

>  <r_epik_Ionization_Penalty>  (56) 
4.92718e-08

>  <r_epik_Ionization_Penalty_Charging>  (56) 
0

>  <r_epik_Ionization_Penalty_Neutral>  (56) 
4.92718e-08

>  <r_epik_State_Penalty>  (56) 
-0

>  <r_epik_Charging_Adjusted_Penalty>  (56) 
0

>  <i_epik_Tot_Q>  (56) 
0

>  <i_epik_Tot_abs_Q>  (56) 
0

>  <s_epik_Chemistry_Notes>  (56) 
This compound has an imine and may undergo hydrolysis. This compound contains an acetal/aminal-like group ( X-CH(R)-Y where X, Y are N, S, or O) that may be acid/base labile, releasing an aldehyde.

>  <s_lp_Force_Field>  (56) 
OPLS3e

>  <r_lp_Energy>  (56) 
177.105

>  <b_lp_Chiralities_Consistent>  (56) 
1

>  <s_lp_Variant>  (56) 
18:0-3

>  <s_i_glide_gridfile>  (56) 
pfpi4k_grid

>  <i_i_glide_lignum>  (56) 
24

>  <i_i_glide_rotatable_bonds>  (56) 
5

>  <r_i_docking_score>  (56) 
-3.40279

>  <r_i_glide_ligand_efficiency>  (56) 
-0.162038

>  <r_i_glide_ligand_efficiency_sa>  (56) 
-0.44705

>  <r_i_glide_ligand_efficiency_ln>  (56) 
-0.841333

>  <r_i_glide_gscore>  (56) 
-3.40279

>  <r_i_glide_lipo>  (56) 
-0.265201

>  <r_i_glide_hbond>  (56) 
-0.3067

>  <r_i_glide_metal>  (56) 
-0

>  <r_i_glide_rewards>  (56) 
-1.39518

>  <r_i_glide_evdw>  (56) 
-19.6965

>  <r_i_glide_ecoul>  (56) 
-5.96683

>  <r_i_glide_erotb>  (56) 
0.629371

>  <r_i_glide_esite>  (56) 
-0.185234

>  <r_i_glide_emodel>  (56) 
-30.0782

>  <r_i_glide_energy>  (56) 
-25.6634

>  <r_i_glide_einternal>  (56) 
3.01516

>  <r_i_glide_intrahb_reward>  (56) 
-0

>  <i_i_glide_confnum>  (56) 
2

>  <i_i_glide_posenum>  (56) 
13

>  <r_i_glide_eff_state_penalty>  (56) 
0

>  <ligand_id>  (56) 
18

>  <original_smiles>  (56) 
COC1OC(C)C2C(=NOCC(C)(C)O)C3C=CC2C1C3

>  <smiles>  (56) 
[H]OC(C([H])([H])[H])(C([H])([H])[H])C([H])([H])ON=C1C2([H])C([H])=C([H])C3([H])C1([H])C([H])(C([H])([H])[H])OC([H])(OC([H])([H])[H])C3([H])C2([H])[H]

$$$$
18:2:1
     RDKit          3D

 46 48  0  0  1  0  0  0  0  0999 V2000
    5.4141   -0.1662    3.2856 C   0  0  0  0  0  0  0  0  0  0  0  0
    4.7032   -1.3324    3.6743 O   0  0  0  0  0  0  0  0  0  0  0  0
    3.6661   -1.6649    2.8020 C   0  0  2  0  0  0  0  0  0  0  0  0
    2.6114   -2.3506    3.5006 O   0  0  0  0  0  0  0  0  0  0  0  0
    2.6455   -3.8033    3.6847 C   0  0  1  0  0  0  0  0  0  0  0  0
    1.2575   -4.2403    4.1840 C   0  0  0  0  0  0  0  0  0  0  0  0
    3.2473   -4.6118    2.4671 C   0  0  2  0  0  0  0  0  0  0  0  0
    2.7718   -5.0260    1.0222 C   0  0  0  0  0  0  0  0  0  0  0  0
    1.8481   -5.8528    0.7244 N   0  0  0  0  0  0  0  0  0  0  0  0
    1.1813   -6.3335    1.8653 O   0  0  0  0  0  0  0  0  0  0  0  0
    0.3824   -7.4478    1.4865 C   0  0  0  0  0  0  0  0  0  0  0  0
   -0.3819   -8.0024    2.7043 C   0  0  0  0  0  0  0  0  0  0  0  0
   -1.1148   -9.3037    2.3512 C   0  0  0  0  0  0  0  0  0  0  0  0
    0.5148   -8.2469    3.9307 C   0  0  0  0  0  0  0  0  0  0  0  0
   -1.3847   -7.0643    3.0327 O   0  0  0  0  0  0  0  0  0  0  0  0
    3.6665   -4.3440   -0.0805 C   0  0  2  0  0  0  0  0  0  0  0  0
    5.0425   -4.9341    0.1549 C   0  0  0  0  0  0  0  0  0  0  0  0
    5.5513   -4.7031    1.3744 C   0  0  0  0  0  0  0  0  0  0  0  0
    4.6362   -3.9230    2.3122 C   0  0  1  0  0  0  0  0  0  0  0  0
    4.2455   -2.5695    1.6696 C   0  0  2  0  0  0  0  0  0  0  0  0
    3.8563   -2.7817    0.1490 C   0  0  0  0  0  0  0  0  0  0  0  0
    6.2301    0.0376    3.9799 H   0  0  0  0  0  0  0  0  0  0  0  0
    4.7600    0.7069    3.2876 H   0  0  0  0  0  0  0  0  0  0  0  0
    5.8420   -0.2776    2.2893 H   0  0  0  0  0  0  0  0  0  0  0  0
    3.2209   -0.7349    2.4201 H   0  0  0  0  0  0  0  0  0  0  0  0
    3.3189   -3.9893    4.5201 H   0  0  0  0  0  0  0  0  0  0  0  0
    1.2539   -5.3095    4.3639 H   0  0  0  0  0  0  0  0  0  0  0  0
    0.4768   -4.0098    3.4567 H   0  0  0  0  0  0  0  0  0  0  0  0
    0.9979   -3.7455    5.1216 H   0  0  0  0  0  0  0  0  0  0  0  0
    2.3622   -4.0564    2.1739 H   0  0  0  0  0  0  0  0  0  0  0  0
   -0.3113   -7.1744    0.6860 H   0  0  0  0  0  0  0  0  0  0  0  0
    1.0400   -8.2196    1.0876 H   0  0  0  0  0  0  0  0  0  0  0  0
   -0.4074  -10.0847    2.0799 H   0  0  0  0  0  0  0  0  0  0  0  0
   -1.7936   -9.1643    1.5099 H   0  0  0  0  0  0  0  0  0  0  0  0
   -1.6974   -9.6749    3.1943 H   0  0  0  0  0  0  0  0  0  0  0  0
    1.2886   -8.9781    3.7082 H   0  0  0  0  0  0  0  0  0  0  0  0
   -0.0613   -8.6275    4.7750 H   0  0  0  0  0  0  0  0  0  0  0  0
    1.0147   -7.3441    4.2630 H   0  0  0  0  0  0  0  0  0  0  0  0
   -1.8973   -7.4413    3.7325 H   0  0  0  0  0  0  0  0  0  0  0  0
    3.3209   -4.5700   -1.0866 H   0  0  0  0  0  0  0  0  0  0  0  0
    5.5424   -5.4715   -0.6339 H   0  0  0  0  0  0  0  0  0  0  0  0
    6.5200   -5.0339    1.7152 H   0  0  0  0  0  0  0  0  0  0  0  0
    5.1542   -3.7930    3.2652 H   0  0  0  0  0  0  0  0  0  0  0  0
    3.1876   -2.4917    1.5011 H   0  0  0  0  0  0  0  0  0  0  0  0
    4.7079   -2.4572   -0.4520 H   0  0  0  0  0  0  0  0  0  0  0  0
    3.0215   -2.1981   -0.2858 H   0  0  0  0  0  0  0  0  0  0  0  0
  1  2  1  0
  1 22  1  0
  1 23  1  0
  1 24  1  0
  2  3  1  0
  3 20  1  0
  3  4  1  0
  3 25  1  6
  4  5  1  0
  5  6  1  0
  5  7  1  0
  5 26  1  1
  6 27  1  0
  6 28  1  0
  6 29  1  0
  7 19  1  0
  7  8  1  0
  7 30  1  1
  8  9  2  3
  8 16  1  0
  9 10  1  0
 10 11  1  0
 11 12  1  0
 11 31  1  0
 11 32  1  0
 12 13  1  0
 12 14  1  0
 12 15  1  0
 13 33  1  0
 13 34  1  0
 13 35  1  0
 14 36  1  0
 14 37  1  0
 14 38  1  0
 15 39  1  0
 16 21  1  0
 16 17  1  0
 16 40  1  6
 17 18  2  0
 17 41  1  0
 18 19  1  0
 18 42  1  0
 19 20  1  0
 19 43  1  1
 20 21  1  0
 20 44  1  6
 21 45  1  0
 21 46  1  0
M  END
>  <i_m_ct_stereo_status>  (57) 
1

>  <s_m_source_file>  (57) 
/var/tmp/pbs.5076255.sched01/tmp98udq4tg/0t315e5yz.sdf

>  <i_m_source_file_index>  (57) 
24

>  <i_lp_mmshare_version>  (57) 
48012

>  <i_f3d_flags>  (57) 
0

>  <s_epik_input>  (57) 
W0NIM11bQ0BASF0xT1tDQEBIXShPW0NIM10pW0NIXShbQ0hdMltDSF0xMylbQ0gyXVtDQEBIXShbQ0hdPVtDSF0yKUNcMz1OXE9bQ0gyXUMoW0NIM10pKFtDSDNdKVtPSF0=

>  <s_epik_cmdline>  (57) 
J2VwaWtfcHl0aG9uJywgJy1waHQnLCAnMi4wJywgJy1waCcsICc3LjAnLCAnLXRuJywgJzgnLCAnLW1hJywgJzIwMCcsICctaW1hZScsICc8aW5maWxlLm1hZT4nLCAnLW9tYWUnLCAnPG91dGZpbGUubWFlPic=

>  <r_lp_tautomer_probability>  (57) 
1

>  <r_epik_Ionization_Penalty>  (57) 
4.92718e-08

>  <r_epik_Ionization_Penalty_Charging>  (57) 
0

>  <r_epik_Ionization_Penalty_Neutral>  (57) 
4.92718e-08

>  <r_epik_State_Penalty>  (57) 
-0

>  <r_epik_Charging_Adjusted_Penalty>  (57) 
0

>  <i_epik_Tot_Q>  (57) 
0

>  <i_epik_Tot_abs_Q>  (57) 
0

>  <s_epik_Chemistry_Notes>  (57) 
This compound has an imine and may undergo hydrolysis. This compound contains an acetal/aminal-like group ( X-CH(R)-Y where X, Y are N, S, or O) that may be acid/base labile, releasing an aldehyde.

>  <s_lp_Force_Field>  (57) 
OPLS3e

>  <r_lp_Energy>  (57) 
177.105

>  <b_lp_Chiralities_Consistent>  (57) 
1

>  <s_lp_Variant>  (57) 
18:0-3

>  <s_i_glide_gridfile>  (57) 
pfpi4k_grid

>  <i_i_glide_lignum>  (57) 
24

>  <i_i_glide_rotatable_bonds>  (57) 
5

>  <r_i_docking_score>  (57) 
-3.28827

>  <r_i_glide_ligand_efficiency>  (57) 
-0.156584

>  <r_i_glide_ligand_efficiency_sa>  (57) 
-0.432004

>  <r_i_glide_ligand_efficiency_ln>  (57) 
-0.813017

>  <r_i_glide_gscore>  (57) 
-3.28827

>  <r_i_glide_lipo>  (57) 
-0.522033

>  <r_i_glide_hbond>  (57) 
0

>  <r_i_glide_metal>  (57) 
-0

>  <r_i_glide_rewards>  (57) 
-1.39518

>  <r_i_glide_evdw>  (57) 
-19.8581

>  <r_i_glide_ecoul>  (57) 
-5.70138

>  <r_i_glide_erotb>  (57) 
0.629371

>  <r_i_glide_esite>  (57) 
-0.152318

>  <r_i_glide_emodel>  (57) 
-29.0111

>  <r_i_glide_energy>  (57) 
-25.5595

>  <r_i_glide_einternal>  (57) 
4.66605

>  <r_i_glide_intrahb_reward>  (57) 
-0

>  <i_i_glide_confnum>  (57) 
2

>  <i_i_glide_posenum>  (57) 
36

>  <r_i_glide_eff_state_penalty>  (57) 
0

>  <ligand_id>  (57) 
18

>  <original_smiles>  (57) 
COC1OC(C)C2C(=NOCC(C)(C)O)C3C=CC2C1C3

>  <smiles>  (57) 
[H]OC(C([H])([H])[H])(C([H])([H])[H])C([H])([H])ON=C1C2([H])C([H])=C([H])C3([H])C1([H])C([H])(C([H])([H])[H])OC([H])(OC([H])([H])[H])C3([H])C2([H])[H]

$$$$
18:2:2
     RDKit          3D

 46 48  0  0  1  0  0  0  0  0999 V2000
    4.3885    0.1771    3.9597 C   0  0  0  0  0  0  0  0  0  0  0  0
    4.6727   -0.7745    2.9443 O   0  0  0  0  0  0  0  0  0  0  0  0
    3.5577   -1.1532    2.1940 C   0  0  2  0  0  0  0  0  0  0  0  0
    2.6272   -1.9114    2.9780 O   0  0  0  0  0  0  0  0  0  0  0  0
    2.8198   -3.3489    3.1540 C   0  0  1  0  0  0  0  0  0  0  0  0
    1.5644   -3.9269    3.8035 C   0  0  0  0  0  0  0  0  0  0  0  0
    3.3384   -4.1313    1.8833 C   0  0  2  0  0  0  0  0  0  0  0  0
    2.7423   -4.5750    0.4937 C   0  0  0  0  0  0  0  0  0  0  0  0
    1.8332   -5.4599    0.2925 N   0  0  0  0  0  0  0  0  0  0  0  0
    1.3683   -6.0373    1.4884 O   0  0  0  0  0  0  0  0  0  0  0  0
    0.3490   -6.9853    1.1724 C   0  0  0  0  0  0  0  0  0  0  0  0
    0.0817   -7.9091    2.3807 C   0  0  0  0  0  0  0  0  0  0  0  0
    1.3028   -8.7907    2.6671 C   0  0  0  0  0  0  0  0  0  0  0  0
   -0.3720   -7.1607    3.6432 C   0  0  0  0  0  0  0  0  0  0  0  0
   -1.0001   -8.7606    2.0860 O   0  0  0  0  0  0  0  0  0  0  0  0
    3.4684   -3.8265   -0.6837 C   0  0  2  0  0  0  0  0  0  0  0  0
    4.8992   -4.3092   -0.6102 C   0  0  0  0  0  0  0  0  0  0  0  0
    5.5147   -4.0419    0.5612 C   0  0  0  0  0  0  0  0  0  0  0  0
    4.6360   -3.3395    1.5876 C   0  0  1  0  0  0  0  0  0  0  0  0
    4.0693   -2.0268    1.0075 C   0  0  2  0  0  0  0  0  0  0  0  0
    3.5598   -2.2578   -0.4715 C   0  0  0  0  0  0  0  0  0  0  0  0
    5.3114    0.4507    4.4681 H   0  0  0  0  0  0  0  0  0  0  0  0
    3.7089   -0.2277    4.7093 H   0  0  0  0  0  0  0  0  0  0  0  0
    3.9564    1.0951    3.5583 H   0  0  0  0  0  0  0  0  0  0  0  0
    3.0584   -0.2447    1.8417 H   0  0  0  0  0  0  0  0  0  0  0  0
    3.5888   -3.4909    3.9093 H   0  0  0  0  0  0  0  0  0  0  0  0
    1.8142   -4.9641    3.9750 H   0  0  0  0  0  0  0  0  0  0  0  0
    0.6784   -3.8456    3.1615 H   0  0  0  0  0  0  0  0  0  0  0  0
    1.3326   -3.4451    4.7594 H   0  0  0  0  0  0  0  0  0  0  0  0
    2.3834   -3.6540    1.6906 H   0  0  0  0  0  0  0  0  0  0  0  0
   -0.5530   -6.4571    0.8703 H   0  0  0  0  0  0  0  0  0  0  0  0
    0.6383   -7.5878    0.3159 H   0  0  0  0  0  0  0  0  0  0  0  0
    2.1769   -8.1833    2.9163 H   0  0  0  0  0  0  0  0  0  0  0  0
    1.5699   -9.3998    1.8079 H   0  0  0  0  0  0  0  0  0  0  0  0
    1.1245   -9.4620    3.5071 H   0  0  0  0  0  0  0  0  0  0  0  0
    0.4227   -6.5317    4.0054 H   0  0  0  0  0  0  0  0  0  0  0  0
   -0.6201   -7.8616    4.4571 H   0  0  0  0  0  0  0  0  0  0  0  0
   -1.2669   -6.5567    3.4545 H   0  0  0  0  0  0  0  0  0  0  0  0
   -0.7259   -9.3212    1.3711 H   0  0  0  0  0  0  0  0  0  0  0  0
    3.0378   -4.0628   -1.6549 H   0  0  0  0  0  0  0  0  0  0  0  0
    5.3455   -4.8007   -1.4592 H   0  0  0  0  0  0  0  0  0  0  0  0
    6.5343   -4.2880    0.7998 H   0  0  0  0  0  0  0  0  0  0  0  0
    5.2397   -3.1744    2.4843 H   0  0  0  0  0  0  0  0  0  0  0  0
    2.9938   -2.0213    0.9442 H   0  0  0  0  0  0  0  0  0  0  0  0
    4.3255   -1.8710   -1.1456 H   0  0  0  0  0  0  0  0  0  0  0  0
    2.6372   -1.7709   -0.8157 H   0  0  0  0  0  0  0  0  0  0  0  0
  1  2  1  0
  1 22  1  0
  1 23  1  0
  1 24  1  0
  2  3  1  0
  3 20  1  0
  3  4  1  0
  3 25  1  6
  4  5  1  0
  5  6  1  0
  5  7  1  0
  5 26  1  1
  6 27  1  0
  6 28  1  0
  6 29  1  0
  7 19  1  0
  7  8  1  0
  7 30  1  1
  8  9  2  3
  8 16  1  0
  9 10  1  0
 10 11  1  0
 11 12  1  0
 11 31  1  0
 11 32  1  0
 12 13  1  0
 12 14  1  0
 12 15  1  0
 13 33  1  0
 13 34  1  0
 13 35  1  0
 14 36  1  0
 14 37  1  0
 14 38  1  0
 15 39  1  0
 16 21  1  0
 16 17  1  0
 16 40  1  6
 17 18  2  0
 17 41  1  0
 18 19  1  0
 18 42  1  0
 19 20  1  0
 19 43  1  1
 20 21  1  0
 20 44  1  6
 21 45  1  0
 21 46  1  0
M  END
>  <i_m_ct_stereo_status>  (58) 
1

>  <s_m_source_file>  (58) 
/var/tmp/pbs.5076255.sched01/tmp98udq4tg/0t315e5yz.sdf

>  <i_m_source_file_index>  (58) 
24

>  <i_lp_mmshare_version>  (58) 
48012

>  <i_f3d_flags>  (58) 
0

>  <s_epik_input>  (58) 
W0NIM11bQ0BASF0xT1tDQEBIXShPW0NIM10pW0NIXShbQ0hdMltDSF0xMylbQ0gyXVtDQEBIXShbQ0hdPVtDSF0yKUNcMz1OXE9bQ0gyXUMoW0NIM10pKFtDSDNdKVtPSF0=

>  <s_epik_cmdline>  (58) 
J2VwaWtfcHl0aG9uJywgJy1waHQnLCAnMi4wJywgJy1waCcsICc3LjAnLCAnLXRuJywgJzgnLCAnLW1hJywgJzIwMCcsICctaW1hZScsICc8aW5maWxlLm1hZT4nLCAnLW9tYWUnLCAnPG91dGZpbGUubWFlPic=

>  <r_lp_tautomer_probability>  (58) 
1

>  <r_epik_Ionization_Penalty>  (58) 
4.92718e-08

>  <r_epik_Ionization_Penalty_Charging>  (58) 
0

>  <r_epik_Ionization_Penalty_Neutral>  (58) 
4.92718e-08

>  <r_epik_State_Penalty>  (58) 
-0

>  <r_epik_Charging_Adjusted_Penalty>  (58) 
0

>  <i_epik_Tot_Q>  (58) 
0

>  <i_epik_Tot_abs_Q>  (58) 
0

>  <s_epik_Chemistry_Notes>  (58) 
This compound has an imine and may undergo hydrolysis. This compound contains an acetal/aminal-like group ( X-CH(R)-Y where X, Y are N, S, or O) that may be acid/base labile, releasing an aldehyde.

>  <s_lp_Force_Field>  (58) 
OPLS3e

>  <r_lp_Energy>  (58) 
177.105

>  <b_lp_Chiralities_Consistent>  (58) 
1

>  <s_lp_Variant>  (58) 
18:0-3

>  <s_i_glide_gridfile>  (58) 
pfpi4k_grid

>  <i_i_glide_lignum>  (58) 
24

>  <i_i_glide_rotatable_bonds>  (58) 
5

>  <r_i_docking_score>  (58) 
-3.23168

>  <r_i_glide_ligand_efficiency>  (58) 
-0.153889

>  <r_i_glide_ligand_efficiency_sa>  (58) 
-0.424569

>  <r_i_glide_ligand_efficiency_ln>  (58) 
-0.799026

>  <r_i_glide_gscore>  (58) 
-3.23168

>  <r_i_glide_lipo>  (58) 
-0.151617

>  <r_i_glide_hbond>  (58) 
-0.32

>  <r_i_glide_metal>  (58) 
-0

>  <r_i_glide_rewards>  (58) 
-1.39518

>  <r_i_glide_evdw>  (58) 
-18.21

>  <r_i_glide_ecoul>  (58) 
-5.81179

>  <r_i_glide_erotb>  (58) 
0.629371

>  <r_i_glide_esite>  (58) 
-0.211987

>  <r_i_glide_emodel>  (58) 
-29.3075

>  <r_i_glide_energy>  (58) 
-24.0218

>  <r_i_glide_einternal>  (58) 
0.51231

>  <r_i_glide_intrahb_reward>  (58) 
-0

>  <i_i_glide_confnum>  (58) 
5

>  <i_i_glide_posenum>  (58) 
31

>  <r_i_glide_eff_state_penalty>  (58) 
0

>  <ligand_id>  (58) 
18

>  <original_smiles>  (58) 
COC1OC(C)C2C(=NOCC(C)(C)O)C3C=CC2C1C3

>  <smiles>  (58) 
[H]OC(C([H])([H])[H])(C([H])([H])[H])C([H])([H])ON=C1C2([H])C([H])=C([H])C3([H])C1([H])C([H])(C([H])([H])[H])OC([H])(OC([H])([H])[H])C3([H])C2([H])[H]

$$$$
18:3:0
     RDKit          3D

 46 48  0  0  1  0  0  0  0  0999 V2000
    4.9442   -0.2301    0.6317 C   0  0  0  0  0  0  0  0  0  0  0  0
    4.8386   -1.6302    0.7908 O   0  0  0  0  0  0  0  0  0  0  0  0
    3.5370   -2.1163    0.7503 C   0  0  2  0  0  0  0  0  0  0  0  0
    2.7711   -1.7088    1.9083 O   0  0  0  0  0  0  0  0  0  0  0  0
    2.8082   -2.4743    3.1630 C   0  0  1  0  0  0  0  0  0  0  0  0
    1.6251   -2.0344    4.0558 C   0  0  0  0  0  0  0  0  0  0  0  0
    2.9403   -4.0218    2.9461 C   0  0  2  0  0  0  0  0  0  0  0  0
    1.9670   -5.1798    2.5812 C   0  0  0  0  0  0  0  0  0  0  0  0
    0.9980   -5.5535    3.3267 N   0  0  0  0  0  0  0  0  0  0  0  0
    0.3081   -6.6521    2.7886 O   0  0  0  0  0  0  0  0  0  0  0  0
    0.1735   -7.6467    3.7997 C   0  0  0  0  0  0  0  0  0  0  0  0
    0.0702   -9.0386    3.1435 C   0  0  0  0  0  0  0  0  0  0  0  0
   -1.2918   -9.2544    2.4735 C   0  0  0  0  0  0  0  0  0  0  0  0
    1.2255   -9.2808    2.1584 C   0  0  0  0  0  0  0  0  0  0  0  0
    0.2110  -10.0184    4.1584 O   0  0  0  0  0  0  0  0  0  0  0  0
    2.4120   -5.8601    1.2327 C   0  0  2  0  0  0  0  0  0  0  0  0
    3.7656   -6.4651    1.5664 C   0  0  0  0  0  0  0  0  0  0  0  0
    4.6921   -5.5805    1.9596 C   0  0  0  0  0  0  0  0  0  0  0  0
    4.2023   -4.1382    2.0485 C   0  0  1  0  0  0  0  0  0  0  0  0
    3.6407   -3.6721    0.6842 C   0  0  2  0  0  0  0  0  0  0  0  0
    2.7183   -4.8107    0.0865 C   0  0  0  0  0  0  0  0  0  0  0  0
    5.9934    0.0591    0.6258 H   0  0  0  0  0  0  0  0  0  0  0  0
    4.4559    0.2944    1.4505 H   0  0  0  0  0  0  0  0  0  0  0  0
    4.5108    0.1099   -0.3080 H   0  0  0  0  0  0  0  0  0  0  0  0
    3.0604   -1.7028   -0.1548 H   0  0  0  0  0  0  0  0  0  0  0  0
    3.7137   -2.1659    3.6852 H   0  0  0  0  0  0  0  0  0  0  0  0
    1.5885   -2.6144    4.9794 H   0  0  0  0  0  0  0  0  0  0  0  0
    0.6690   -2.1580    3.5440 H   0  0  0  0  0  0  0  0  0  0  0  0
    1.7204   -0.9826    4.3229 H   0  0  0  0  0  0  0  0  0  0  0  0
    2.0428   -3.6461    2.4772 H   0  0  0  0  0  0  0  0  0  0  0  0
    1.0470   -7.6489    4.4545 H   0  0  0  0  0  0  0  0  0  0  0  0
   -0.6864   -7.4307    4.4353 H   0  0  0  0  0  0  0  0  0  0  0  0
   -1.4479   -8.5389    1.6694 H   0  0  0  0  0  0  0  0  0  0  0  0
   -2.1082   -9.1456    3.1871 H   0  0  0  0  0  0  0  0  0  0  0  0
   -1.3577  -10.2519    2.0406 H   0  0  0  0  0  0  0  0  0  0  0  0
    1.1702   -8.6110    1.3080 H   0  0  0  0  0  0  0  0  0  0  0  0
    1.1803  -10.2777    1.7404 H   0  0  0  0  0  0  0  0  0  0  0  0
    2.2012   -9.1641    2.6358 H   0  0  0  0  0  0  0  0  0  0  0  0
   -0.6502  -10.2655    4.4875 H   0  0  0  0  0  0  0  0  0  0  0  0
    1.7175   -6.6127    0.8694 H   0  0  0  0  0  0  0  0  0  0  0  0
    3.9325   -7.5300    1.4667 H   0  0  0  0  0  0  0  0  0  0  0  0
    5.7155   -5.8232    2.2197 H   0  0  0  0  0  0  0  0  0  0  0  0
    5.0262   -3.5141    2.3978 H   0  0  0  0  0  0  0  0  0  0  0  0
    2.6033   -3.4073    0.6915 H   0  0  0  0  0  0  0  0  0  0  0  0
    3.3232   -5.3241   -0.6612 H   0  0  0  0  0  0  0  0  0  0  0  0
    1.8006   -4.5442   -0.4744 H   0  0  0  0  0  0  0  0  0  0  0  0
  1  2  1  0
  1 22  1  0
  1 23  1  0
  1 24  1  0
  2  3  1  0
  3 20  1  0
  3  4  1  0
  3 25  1  6
  4  5  1  0
  5  6  1  0
  5  7  1  0
  5 26  1  1
  6 27  1  0
  6 28  1  0
  6 29  1  0
  7 19  1  0
  7  8  1  0
  7 30  1  1
  8  9  2  3
  8 16  1  0
  9 10  1  0
 10 11  1  0
 11 12  1  0
 11 31  1  0
 11 32  1  0
 12 13  1  0
 12 14  1  0
 12 15  1  0
 13 33  1  0
 13 34  1  0
 13 35  1  0
 14 36  1  0
 14 37  1  0
 14 38  1  0
 15 39  1  0
 16 21  1  0
 16 17  1  0
 16 40  1  6
 17 18  2  0
 17 41  1  0
 18 19  1  0
 18 42  1  0
 19 20  1  0
 19 43  1  1
 20 21  1  0
 20 44  1  6
 21 45  1  0
 21 46  1  0
M  END
>  <i_m_ct_stereo_status>  (59) 
1

>  <s_m_source_file>  (59) 
/var/tmp/pbs.5076255.sched01/tmp98udq4tg/0t315e5yz.sdf

>  <i_m_source_file_index>  (59) 
25

>  <i_lp_mmshare_version>  (59) 
48012

>  <i_f3d_flags>  (59) 
0

>  <s_epik_input>  (59) 
W0NIM11bQ0BASF0xT1tDQEBIXShPW0NIM10pW0NIXShbQ0hdMltDSF0xMylbQ0gyXVtDQEBIXShbQ0hdPVtDSF0yKUNcMz1OXE9bQ0gyXUMoW0NIM10pKFtDSDNdKVtPSF0=

>  <s_epik_cmdline>  (59) 
J2VwaWtfcHl0aG9uJywgJy1waHQnLCAnMi4wJywgJy1waCcsICc3LjAnLCAnLXRuJywgJzgnLCAnLW1hJywgJzIwMCcsICctaW1hZScsICc8aW5maWxlLm1hZT4nLCAnLW9tYWUnLCAnPG91dGZpbGUubWFlPic=

>  <r_lp_tautomer_probability>  (59) 
1

>  <r_epik_Ionization_Penalty>  (59) 
4.92718e-08

>  <r_epik_Ionization_Penalty_Charging>  (59) 
0

>  <r_epik_Ionization_Penalty_Neutral>  (59) 
4.92718e-08

>  <r_epik_State_Penalty>  (59) 
-0

>  <r_epik_Charging_Adjusted_Penalty>  (59) 
0

>  <i_epik_Tot_Q>  (59) 
0

>  <i_epik_Tot_abs_Q>  (59) 
0

>  <s_epik_Chemistry_Notes>  (59) 
This compound has an imine and may undergo hydrolysis. This compound contains an acetal/aminal-like group ( X-CH(R)-Y where X, Y are N, S, or O) that may be acid/base labile, releasing an aldehyde.

>  <s_lp_Force_Field>  (59) 
OPLS3e

>  <r_lp_Energy>  (59) 
179.144

>  <b_lp_Chiralities_Consistent>  (59) 
1

>  <s_lp_Variant>  (59) 
18:0-4

>  <s_i_glide_gridfile>  (59) 
pfpi4k_grid

>  <i_i_glide_lignum>  (59) 
25

>  <i_i_glide_rotatable_bonds>  (59) 
5

>  <r_i_docking_score>  (59) 
-3.19326

>  <r_i_glide_ligand_efficiency>  (59) 
-0.15206

>  <r_i_glide_ligand_efficiency_sa>  (59) 
-0.419522

>  <r_i_glide_ligand_efficiency_ln>  (59) 
-0.789526

>  <r_i_glide_gscore>  (59) 
-3.19326

>  <r_i_glide_lipo>  (59) 
-0.511092

>  <r_i_glide_hbond>  (59) 
-0.16

>  <r_i_glide_metal>  (59) 
-0

>  <r_i_glide_rewards>  (59) 
-1.39518

>  <r_i_glide_evdw>  (59) 
-18.8942

>  <r_i_glide_ecoul>  (59) 
-4.39193

>  <r_i_glide_erotb>  (59) 
0.629371

>  <r_i_glide_esite>  (59) 
-0.152859

>  <r_i_glide_emodel>  (59) 
-26.302

>  <r_i_glide_energy>  (59) 
-23.2861

>  <r_i_glide_einternal>  (59) 
4.67052

>  <r_i_glide_intrahb_reward>  (59) 
-0

>  <i_i_glide_confnum>  (59) 
3

>  <i_i_glide_posenum>  (59) 
12

>  <r_i_glide_eff_state_penalty>  (59) 
0

>  <ligand_id>  (59) 
18

>  <original_smiles>  (59) 
COC1OC(C)C2C(=NOCC(C)(C)O)C3C=CC2C1C3

>  <smiles>  (59) 
[H]OC(C([H])([H])[H])(C([H])([H])[H])C([H])([H])ON=C1C2([H])C([H])=C([H])C3([H])C1([H])C([H])(C([H])([H])[H])OC([H])(OC([H])([H])[H])C3([H])C2([H])[H]

$$$$
18:3:1
     RDKit          3D

 46 48  0  0  1  0  0  0  0  0999 V2000
    1.8970    2.3819    2.2595 C   0  0  0  0  0  0  0  0  0  0  0  0
    2.6068    1.1518    2.2793 O   0  0  0  0  0  0  0  0  0  0  0  0
    1.8413    0.0498    1.9099 C   0  0  2  0  0  0  0  0  0  0  0  0
    0.8364   -0.2546    2.9067 O   0  0  0  0  0  0  0  0  0  0  0  0
    1.1575   -1.0673    4.0906 C   0  0  1  0  0  0  0  0  0  0  0  0
   -0.1564   -1.5125    4.7694 C   0  0  0  0  0  0  0  0  0  0  0  0
    2.1844   -2.2180    3.7949 C   0  0  2  0  0  0  0  0  0  0  0  0
    2.1068   -3.6447    3.1688 C   0  0  0  0  0  0  0  0  0  0  0  0
    1.4217   -4.5984    3.6661 N   0  0  0  0  0  0  0  0  0  0  0  0
    1.4951   -5.7665    2.8934 O   0  0  0  0  0  0  0  0  0  0  0  0
    0.5874   -6.7302    3.4138 C   0  0  0  0  0  0  0  0  0  0  0  0
    0.4814   -7.9190    2.4337 C   0  0  0  0  0  0  0  0  0  0  0  0
    1.8561   -8.4636    2.0109 C   0  0  0  0  0  0  0  0  0  0  0  0
   -0.3880   -9.0489    3.0150 C   0  0  0  0  0  0  0  0  0  0  0  0
   -0.1902   -7.4571    1.2797 O   0  0  0  0  0  0  0  0  0  0  0  0
    3.0303   -3.7189    1.8900 C   0  0  2  0  0  0  0  0  0  0  0  0
    4.4283   -3.5087    2.4388 C   0  0  0  0  0  0  0  0  0  0  0  0
    4.6159   -2.3398    3.0672 C   0  0  0  0  0  0  0  0  0  0  0  0
    3.3758   -1.4584    3.1570 C   0  0  1  0  0  0  0  0  0  0  0  0
    2.8281   -1.1523    1.7453 C   0  0  2  0  0  0  0  0  0  0  0  0
    2.8047   -2.4969    0.8966 C   0  0  0  0  0  0  0  0  0  0  0  0
    2.5799    3.2102    2.4684 H   0  0  0  0  0  0  0  0  0  0  0  0
    1.1104    2.3976    3.0175 H   0  0  0  0  0  0  0  0  0  0  0  0
    1.4429    2.5599    1.2896 H   0  0  0  0  0  0  0  0  0  0  0  0
    1.3514    0.3073    0.9588 H   0  0  0  0  0  0  0  0  0  0  0  0
    1.6517   -0.3996    4.7994 H   0  0  0  0  0  0  0  0  0  0  0  0
    0.0374   -2.1657    5.6202 H   0  0  0  0  0  0  0  0  0  0  0  0
   -0.7980   -2.0595    4.0799 H   0  0  0  0  0  0  0  0  0  0  0  0
   -0.7171   -0.6479    5.1195 H   0  0  0  0  0  0  0  0  0  0  0  0
    1.3012   -2.3277    3.1791 H   0  0  0  0  0  0  0  0  0  0  0  0
    0.9575   -7.0731    4.3825 H   0  0  0  0  0  0  0  0  0  0  0  0
   -0.3986   -6.2971    3.5974 H   0  0  0  0  0  0  0  0  0  0  0  0
    2.4020   -8.8544    2.8690 H   0  0  0  0  0  0  0  0  0  0  0  0
    2.4740   -7.6951    1.5467 H   0  0  0  0  0  0  0  0  0  0  0  0
    1.7643   -9.2777    1.2934 H   0  0  0  0  0  0  0  0  0  0  0  0
    0.0511   -9.4694    3.9221 H   0  0  0  0  0  0  0  0  0  0  0  0
   -0.4994   -9.8706    2.3054 H   0  0  0  0  0  0  0  0  0  0  0  0
   -1.3907   -8.7003    3.2699 H   0  0  0  0  0  0  0  0  0  0  0  0
   -0.2001   -8.1791    0.6608 H   0  0  0  0  0  0  0  0  0  0  0  0
    2.9793   -4.6782    1.3744 H   0  0  0  0  0  0  0  0  0  0  0  0
    5.1911   -4.2602    2.2910 H   0  0  0  0  0  0  0  0  0  0  0  0
    5.5468   -2.0058    3.5034 H   0  0  0  0  0  0  0  0  0  0  0  0
    3.6399   -0.5533    3.7070 H   0  0  0  0  0  0  0  0  0  0  0  0
    1.8305   -1.5057    1.5621 H   0  0  0  0  0  0  0  0  0  0  0  0
    3.6670   -2.4618    0.2272 H   0  0  0  0  0  0  0  0  0  0  0  0
    1.9693   -2.6880    0.1970 H   0  0  0  0  0  0  0  0  0  0  0  0
  1  2  1  0
  1 22  1  0
  1 23  1  0
  1 24  1  0
  2  3  1  0
  3 20  1  0
  3  4  1  0
  3 25  1  6
  4  5  1  0
  5  6  1  0
  5  7  1  0
  5 26  1  1
  6 27  1  0
  6 28  1  0
  6 29  1  0
  7 19  1  0
  7  8  1  0
  7 30  1  1
  8  9  2  3
  8 16  1  0
  9 10  1  0
 10 11  1  0
 11 12  1  0
 11 31  1  0
 11 32  1  0
 12 13  1  0
 12 14  1  0
 12 15  1  0
 13 33  1  0
 13 34  1  0
 13 35  1  0
 14 36  1  0
 14 37  1  0
 14 38  1  0
 15 39  1  0
 16 21  1  0
 16 17  1  0
 16 40  1  6
 17 18  2  0
 17 41  1  0
 18 19  1  0
 18 42  1  0
 19 20  1  0
 19 43  1  1
 20 21  1  0
 20 44  1  6
 21 45  1  0
 21 46  1  0
M  END
>  <i_m_ct_stereo_status>  (60) 
1

>  <s_m_source_file>  (60) 
/var/tmp/pbs.5076255.sched01/tmp98udq4tg/0t315e5yz.sdf

>  <i_m_source_file_index>  (60) 
25

>  <i_lp_mmshare_version>  (60) 
48012

>  <i_f3d_flags>  (60) 
0

>  <s_epik_input>  (60) 
W0NIM11bQ0BASF0xT1tDQEBIXShPW0NIM10pW0NIXShbQ0hdMltDSF0xMylbQ0gyXVtDQEBIXShbQ0hdPVtDSF0yKUNcMz1OXE9bQ0gyXUMoW0NIM10pKFtDSDNdKVtPSF0=

>  <s_epik_cmdline>  (60) 
J2VwaWtfcHl0aG9uJywgJy1waHQnLCAnMi4wJywgJy1waCcsICc3LjAnLCAnLXRuJywgJzgnLCAnLW1hJywgJzIwMCcsICctaW1hZScsICc8aW5maWxlLm1hZT4nLCAnLW9tYWUnLCAnPG91dGZpbGUubWFlPic=

>  <r_lp_tautomer_probability>  (60) 
1

>  <r_epik_Ionization_Penalty>  (60) 
4.92718e-08

>  <r_epik_Ionization_Penalty_Charging>  (60) 
0

>  <r_epik_Ionization_Penalty_Neutral>  (60) 
4.92718e-08

>  <r_epik_State_Penalty>  (60) 
-0

>  <r_epik_Charging_Adjusted_Penalty>  (60) 
0

>  <i_epik_Tot_Q>  (60) 
0

>  <i_epik_Tot_abs_Q>  (60) 
0

>  <s_epik_Chemistry_Notes>  (60) 
This compound has an imine and may undergo hydrolysis. This compound contains an acetal/aminal-like group ( X-CH(R)-Y where X, Y are N, S, or O) that may be acid/base labile, releasing an aldehyde.

>  <s_lp_Force_Field>  (60) 
OPLS3e

>  <r_lp_Energy>  (60) 
179.144

>  <b_lp_Chiralities_Consistent>  (60) 
1

>  <s_lp_Variant>  (60) 
18:0-4

>  <s_i_glide_gridfile>  (60) 
pfpi4k_grid

>  <i_i_glide_lignum>  (60) 
25

>  <i_i_glide_rotatable_bonds>  (60) 
5

>  <r_i_docking_score>  (60) 
-2.68123

>  <r_i_glide_ligand_efficiency>  (60) 
-0.127677

>  <r_i_glide_ligand_efficiency_sa>  (60) 
-0.352252

>  <r_i_glide_ligand_efficiency_ln>  (60) 
-0.662927

>  <r_i_glide_gscore>  (60) 
-2.68123

>  <r_i_glide_lipo>  (60) 
-0.0482926

>  <r_i_glide_hbond>  (60) 
0

>  <r_i_glide_metal>  (60) 
-0

>  <r_i_glide_rewards>  (60) 
-1.39518

>  <r_i_glide_evdw>  (60) 
-19.2652

>  <r_i_glide_ecoul>  (60) 
-5.37468

>  <r_i_glide_erotb>  (60) 
0.629371

>  <r_i_glide_esite>  (60) 
-0.0976653

>  <r_i_glide_emodel>  (60) 
-28.02

>  <r_i_glide_energy>  (60) 
-24.6399

>  <r_i_glide_einternal>  (60) 
2.60125

>  <r_i_glide_intrahb_reward>  (60) 
-0

>  <i_i_glide_confnum>  (60) 
5

>  <i_i_glide_posenum>  (60) 
7

>  <r_i_glide_eff_state_penalty>  (60) 
0

>  <ligand_id>  (60) 
18

>  <original_smiles>  (60) 
COC1OC(C)C2C(=NOCC(C)(C)O)C3C=CC2C1C3

>  <smiles>  (60) 
[H]OC(C([H])([H])[H])(C([H])([H])[H])C([H])([H])ON=C1C2([H])C([H])=C([H])C3([H])C1([H])C([H])(C([H])([H])[H])OC([H])(OC([H])([H])[H])C3([H])C2([H])[H]

$$$$
18:3:2
     RDKit          3D

 46 48  0  0  1  0  0  0  0  0999 V2000
   -3.0110    2.9420    8.1072 C   0  0  0  0  0  0  0  0  0  0  0  0
   -2.4629    1.7874    7.4890 O   0  0  0  0  0  0  0  0  0  0  0  0
   -1.2121    1.9894    6.9126 C   0  0  2  0  0  0  0  0  0  0  0  0
   -1.2907    2.8102    5.7252 O   0  0  0  0  0  0  0  0  0  0  0  0
   -1.5631    2.2334    4.3989 C   0  0  1  0  0  0  0  0  0  0  0  0
   -1.1984    3.2607    3.3031 C   0  0  0  0  0  0  0  0  0  0  0  0
   -0.9440    0.8037    4.2051 C   0  0  2  0  0  0  0  0  0  0  0  0
    0.4656    0.2395    3.8518 C   0  0  0  0  0  0  0  0  0  0  0  0
    1.0666    0.4810    2.7500 N   0  0  0  0  0  0  0  0  0  0  0  0
    2.2656   -0.2320    2.6274 O   0  0  0  0  0  0  0  0  0  0  0  0
    2.7953   -0.0294    1.3209 C   0  0  0  0  0  0  0  0  0  0  0  0
    3.5717   -1.2868    0.8731 C   0  0  0  0  0  0  0  0  0  0  0  0
    4.4248   -1.0044   -0.3747 C   0  0  0  0  0  0  0  0  0  0  0  0
    4.4417   -1.8840    1.9894 C   0  0  0  0  0  0  0  0  0  0  0  0
    2.6172   -2.2504    0.4794 O   0  0  0  0  0  0  0  0  0  0  0  0
    0.9753   -0.6998    5.0090 C   0  0  2  0  0  0  0  0  0  0  0  0
   -0.0214   -1.8433    5.0341 C   0  0  0  0  0  0  0  0  0  0  0  0
   -1.2892   -1.4766    5.2784 C   0  0  0  0  0  0  0  0  0  0  0  0
   -1.5030    0.0210    5.4248 C   0  0  1  0  0  0  0  0  0  0  0  0
   -0.6311    0.5764    6.5686 C   0  0  2  0  0  0  0  0  0  0  0  0
    0.8410   -0.0205    6.4405 C   0  0  0  0  0  0  0  0  0  0  0  0
   -3.9711    2.7035    8.5638 H   0  0  0  0  0  0  0  0  0  0  0  0
   -3.1772    3.7344    7.3791 H   0  0  0  0  0  0  0  0  0  0  0  0
   -2.3716    3.3317    8.9014 H   0  0  0  0  0  0  0  0  0  0  0  0
   -0.5921    2.5051    7.6608 H   0  0  0  0  0  0  0  0  0  0  0  0
   -2.6430    2.1077    4.3358 H   0  0  0  0  0  0  0  0  0  0  0  0
   -1.3491    2.8439    2.3053 H   0  0  0  0  0  0  0  0  0  0  0  0
   -0.1550    3.5749    3.3704 H   0  0  0  0  0  0  0  0  0  0  0  0
   -1.8166    4.1517    3.3876 H   0  0  0  0  0  0  0  0  0  0  0  0
   -0.1740    1.5317    4.4093 H   0  0  0  0  0  0  0  0  0  0  0  0
    2.0320    0.2163    0.5824 H   0  0  0  0  0  0  0  0  0  0  0  0
    3.4522    0.8420    1.3608 H   0  0  0  0  0  0  0  0  0  0  0  0
    5.1918   -0.2559   -0.1676 H   0  0  0  0  0  0  0  0  0  0  0  0
    3.8157   -0.6467   -1.2044 H   0  0  0  0  0  0  0  0  0  0  0  0
    4.9312   -1.9053   -0.7221 H   0  0  0  0  0  0  0  0  0  0  0  0
    5.1970   -1.1716    2.3252 H   0  0  0  0  0  0  0  0  0  0  0  0
    4.9559   -2.7833    1.6506 H   0  0  0  0  0  0  0  0  0  0  0  0
    3.8406   -2.1646    2.8548 H   0  0  0  0  0  0  0  0  0  0  0  0
    1.9676   -1.7903   -0.0634 H   0  0  0  0  0  0  0  0  0  0  0  0
    1.9789   -1.0931    4.8358 H   0  0  0  0  0  0  0  0  0  0  0  0
    0.3088   -2.8622    4.8854 H   0  0  0  0  0  0  0  0  0  0  0  0
   -2.1225   -2.1570    5.3583 H   0  0  0  0  0  0  0  0  0  0  0  0
   -2.5713    0.1926    5.5797 H   0  0  0  0  0  0  0  0  0  0  0  0
    0.0834    1.3136    6.2653 H   0  0  0  0  0  0  0  0  0  0  0  0
    0.9304   -0.8167    7.1832 H   0  0  0  0  0  0  0  0  0  0  0  0
    1.7141    0.6227    6.6590 H   0  0  0  0  0  0  0  0  0  0  0  0
  1  2  1  0
  1 22  1  0
  1 23  1  0
  1 24  1  0
  2  3  1  0
  3 20  1  0
  3  4  1  0
  3 25  1  1
  4  5  1  0
  5  6  1  0
  5  7  1  0
  5 26  1  1
  6 27  1  0
  6 28  1  0
  6 29  1  0
  7 19  1  0
  7  8  1  0
  7 30  1  6
  8  9  2  3
  8 16  1  0
  9 10  1  0
 10 11  1  0
 11 12  1  0
 11 31  1  0
 11 32  1  0
 12 13  1  0
 12 14  1  0
 12 15  1  0
 13 33  1  0
 13 34  1  0
 13 35  1  0
 14 36  1  0
 14 37  1  0
 14 38  1  0
 15 39  1  0
 16 21  1  0
 16 17  1  0
 16 40  1  6
 17 18  2  0
 17 41  1  0
 18 19  1  0
 18 42  1  0
 19 20  1  0
 19 43  1  1
 20 21  1  0
 20 44  1  1
 21 45  1  0
 21 46  1  0
M  END
>  <i_m_ct_stereo_status>  (61) 
1

>  <s_m_source_file>  (61) 
/var/tmp/pbs.5076255.sched01/tmp98udq4tg/0t315e5yz.sdf

>  <i_m_source_file_index>  (61) 
25

>  <i_lp_mmshare_version>  (61) 
48012

>  <i_f3d_flags>  (61) 
0

>  <s_epik_input>  (61) 
W0NIM11bQ0BASF0xT1tDQEBIXShPW0NIM10pW0NIXShbQ0hdMltDSF0xMylbQ0gyXVtDQEBIXShbQ0hdPVtDSF0yKUNcMz1OXE9bQ0gyXUMoW0NIM10pKFtDSDNdKVtPSF0=

>  <s_epik_cmdline>  (61) 
J2VwaWtfcHl0aG9uJywgJy1waHQnLCAnMi4wJywgJy1waCcsICc3LjAnLCAnLXRuJywgJzgnLCAnLW1hJywgJzIwMCcsICctaW1hZScsICc8aW5maWxlLm1hZT4nLCAnLW9tYWUnLCAnPG91dGZpbGUubWFlPic=

>  <r_lp_tautomer_probability>  (61) 
1

>  <r_epik_Ionization_Penalty>  (61) 
4.92718e-08

>  <r_epik_Ionization_Penalty_Charging>  (61) 
0

>  <r_epik_Ionization_Penalty_Neutral>  (61) 
4.92718e-08

>  <r_epik_State_Penalty>  (61) 
-0

>  <r_epik_Charging_Adjusted_Penalty>  (61) 
0

>  <i_epik_Tot_Q>  (61) 
0

>  <i_epik_Tot_abs_Q>  (61) 
0

>  <s_epik_Chemistry_Notes>  (61) 
This compound has an imine and may undergo hydrolysis. This compound contains an acetal/aminal-like group ( X-CH(R)-Y where X, Y are N, S, or O) that may be acid/base labile, releasing an aldehyde.

>  <s_lp_Force_Field>  (61) 
OPLS3e

>  <r_lp_Energy>  (61) 
179.144

>  <b_lp_Chiralities_Consistent>  (61) 
1

>  <s_lp_Variant>  (61) 
18:0-4

>  <s_i_glide_gridfile>  (61) 
pfpi4k_grid

>  <i_i_glide_lignum>  (61) 
25

>  <i_i_glide_rotatable_bonds>  (61) 
5

>  <r_i_docking_score>  (61) 
-2.60277

>  <r_i_glide_ligand_efficiency>  (61) 
-0.123942

>  <r_i_glide_ligand_efficiency_sa>  (61) 
-0.341945

>  <r_i_glide_ligand_efficiency_ln>  (61) 
-0.64353

>  <r_i_glide_gscore>  (61) 
-2.60277

>  <r_i_glide_lipo>  (61) 
-0.133604

>  <r_i_glide_hbond>  (61) 
-0.00747239

>  <r_i_glide_metal>  (61) 
-0

>  <r_i_glide_rewards>  (61) 
-1.39518

>  <r_i_glide_evdw>  (61) 
-18.7642

>  <r_i_glide_ecoul>  (61) 
-4.5694

>  <r_i_glide_erotb>  (61) 
0.629371

>  <r_i_glide_esite>  (61) 
-0.072271

>  <r_i_glide_emodel>  (61) 
-25.7104

>  <r_i_glide_energy>  (61) 
-23.3336

>  <r_i_glide_einternal>  (61) 
4.11587

>  <r_i_glide_intrahb_reward>  (61) 
-0

>  <i_i_glide_confnum>  (61) 
3

>  <i_i_glide_posenum>  (61) 
9

>  <r_i_glide_eff_state_penalty>  (61) 
0

>  <ligand_id>  (61) 
18

>  <original_smiles>  (61) 
COC1OC(C)C2C(=NOCC(C)(C)O)C3C=CC2C1C3

>  <smiles>  (61) 
[H]OC(C([H])([H])[H])(C([H])([H])[H])C([H])([H])ON=C1C2([H])C([H])=C([H])C3([H])C1([H])C([H])(C([H])([H])[H])OC([H])(OC([H])([H])[H])C3([H])C2([H])[H]

$$$$
19:0:0
     RDKit          3D

 34 37  0  0  1  0  0  0  0  0999 V2000
    4.3341   -2.4594   -2.6584 C   0  0  0  0  0  0  0  0  0  0  0  0
    5.2802   -2.4234   -1.4225 C   0  0  2  0  0  0  0  0  0  0  0  0
    6.6493   -2.9947   -1.8847 C   0  0  0  0  0  0  0  0  0  0  0  0
    7.6584   -3.3354   -0.7857 C   0  0  0  0  0  0  0  0  0  0  0  0
    7.3589   -2.5409    0.4650 C   0  0  0  0  0  0  0  0  0  0  0  0
    5.9419   -2.9224    0.9403 C   0  0  1  0  0  0  0  0  0  0  0  0
    5.4486   -2.0968    2.0775 C   0  0  2  0  0  0  0  0  0  0  0  0
    4.2389   -2.9070    2.6365 C   0  0  0  0  0  0  0  0  0  0  0  0
    3.6001   -3.8821    1.9083 C   0  0  0  0  0  0  0  0  0  0  0  0
    3.8997   -4.1412    0.3982 C   0  0  1  0  0  0  0  0  0  0  0  0
    2.6962   -4.3339   -0.3208 O   0  0  0  0  0  0  0  0  0  0  0  0
    4.7050   -2.8963   -0.0626 C   0  0  2  0  0  0  0  0  0  0  0  0
    3.6795   -1.7196    0.0806 C   0  0  0  0  0  0  0  0  0  0  0  0
    4.6792   -0.6695    0.1341 C   0  0  1  0  0  0  0  0  0  0  0  0
    5.2315   -0.7786    1.4635 O   0  0  0  0  0  0  0  0  0  0  0  0
    5.4996   -1.0370   -0.9873 O   0  0  0  0  0  0  0  0  0  0  0  0
    3.7476   -3.3790   -2.6795 H   0  0  0  0  0  0  0  0  0  0  0  0
    4.8965   -2.4195   -3.5917 H   0  0  0  0  0  0  0  0  0  0  0  0
    3.6462   -1.6156   -2.7111 H   0  0  0  0  0  0  0  0  0  0  0  0
    6.4929   -3.8611   -2.5202 H   0  0  0  0  0  0  0  0  0  0  0  0
    7.1201   -2.2588   -2.5344 H   0  0  0  0  0  0  0  0  0  0  0  0
    7.5941   -4.3887   -0.5207 H   0  0  0  0  0  0  0  0  0  0  0  0
    8.6799   -3.1690   -1.1334 H   0  0  0  0  0  0  0  0  0  0  0  0
    8.0792   -2.8285    1.2276 H   0  0  0  0  0  0  0  0  0  0  0  0
    7.4895   -1.4706    0.2974 H   0  0  0  0  0  0  0  0  0  0  0  0
    6.1108   -3.9375    1.3070 H   0  0  0  0  0  0  0  0  0  0  0  0
    6.2008   -2.0109    2.8634 H   0  0  0  0  0  0  0  0  0  0  0  0
    3.9632   -2.7226    3.6632 H   0  0  0  0  0  0  0  0  0  0  0  0
    2.8008   -4.4563    2.3539 H   0  0  0  0  0  0  0  0  0  0  0  0
    4.4833   -5.0558    0.3006 H   0  0  0  0  0  0  0  0  0  0  0  0
    2.8988   -4.7460   -1.1551 H   0  0  0  0  0  0  0  0  0  0  0  0
    3.0088   -1.5733   -0.7578 H   0  0  0  0  0  0  0  0  0  0  0  0
    3.0237   -1.6389    0.9431 H   0  0  0  0  0  0  0  0  0  0  0  0
    4.2577    0.3278    0.0120 H   0  0  0  0  0  0  0  0  0  0  0  0
  2  1  1  6
  1 17  1  0
  1 18  1  0
  1 19  1  0
  2 12  1  0
  2 16  1  0
  2  3  1  0
  3  4  1  0
  3 20  1  0
  3 21  1  0
  4  5  1  0
  4 22  1  0
  4 23  1  0
  5  6  1  0
  5 24  1  0
  5 25  1  0
  6 12  1  0
  6  7  1  0
  6 26  1  1
  7 15  1  0
  7  8  1  0
  7 27  1  1
  8  9  2  0
  8 28  1  0
  9 10  1  0
  9 29  1  0
 10 11  1  0
 10 12  1  0
 10 30  1  1
 11 31  1  0
 12 13  1  1
 13 14  1  0
 13 32  1  0
 13 33  1  0
 14 15  1  0
 14 16  1  0
 14 34  1  6
M  END
>  <i_m_ct_stereo_status>  (62) 
1

>  <s_m_source_file>  (62) 
/var/tmp/pbs.5076255.sched01/tmp98udq4tg/0t315e5yz.sdf

>  <i_m_source_file_index>  (62) 
26

>  <i_lp_mmshare_version>  (62) 
48012

>  <i_f3d_flags>  (62) 
0

>  <s_epik_input>  (62) 
W0NIM11bQ0BAXTEoW0NAXTIzNClbQ0gyXVtDSDJdW0NIMl1bQ0BIXTJbQ0BASF0oT1tDQEBIXShPMSlbQ0gyXTQpW0NIXT1bQ0hdW0NASF0zW09IXQ==

>  <s_epik_cmdline>  (62) 
J2VwaWtfcHl0aG9uJywgJy1waHQnLCAnMi4wJywgJy1waCcsICc3LjAnLCAnLXRuJywgJzgnLCAnLW1hJywgJzIwMCcsICctaW1hZScsICc8aW5maWxlLm1hZT4nLCAnLW9tYWUnLCAnPG91dGZpbGUubWFlPic=

>  <r_lp_tautomer_probability>  (62) 
1

>  <r_epik_Ionization_Penalty>  (62) 
6.16805e-08

>  <r_epik_Ionization_Penalty_Charging>  (62) 
0

>  <r_epik_Ionization_Penalty_Neutral>  (62) 
6.16805e-08

>  <r_epik_State_Penalty>  (62) 
-0

>  <r_epik_Charging_Adjusted_Penalty>  (62) 
0

>  <i_epik_Tot_Q>  (62) 
0

>  <i_epik_Tot_abs_Q>  (62) 
0

>  <s_epik_Chemistry_Notes>  (62) 
This compound contains an acetal/aminal-like group ( X-CH(R)-Y where X, Y are N, S, or O) that may be acid/base labile, releasing an aldehyde.

>  <s_lp_Force_Field>  (62) 
OPLS3e

>  <r_lp_Energy>  (62) 
94.6342

>  <b_lp_Chiralities_Consistent>  (62) 
1

>  <s_lp_Variant>  (62) 
19:0-1

>  <s_i_glide_gridfile>  (62) 
pfpi4k_grid

>  <i_i_glide_lignum>  (62) 
26

>  <i_i_glide_rotatable_bonds>  (62) 
1

>  <r_i_docking_score>  (62) 
-4.42517

>  <r_i_glide_ligand_efficiency>  (62) 
-0.276573

>  <r_i_glide_ligand_efficiency_sa>  (62) 
-0.696921

>  <r_i_glide_ligand_efficiency_ln>  (62) 
-1.17298

>  <r_i_glide_gscore>  (62) 
-4.42517

>  <r_i_glide_lipo>  (62) 
-0.597287

>  <r_i_glide_hbond>  (62) 
-0.327216

>  <r_i_glide_metal>  (62) 
-0

>  <r_i_glide_rewards>  (62) 
-1.96996

>  <r_i_glide_evdw>  (62) 
-19.1122

>  <r_i_glide_ecoul>  (62) 
-3.83397

>  <r_i_glide_erotb>  (62) 
0

>  <r_i_glide_esite>  (62) 
0

>  <r_i_glide_emodel>  (62) 
-29.2146

>  <r_i_glide_energy>  (62) 
-22.9462

>  <r_i_glide_einternal>  (62) 
0.557204

>  <r_i_glide_intrahb_reward>  (62) 
-0

>  <i_i_glide_confnum>  (62) 
1

>  <i_i_glide_posenum>  (62) 
33

>  <r_i_glide_eff_state_penalty>  (62) 
0

>  <ligand_id>  (62) 
19

>  <original_smiles>  (62) 
CC12CCCC3C4C=CC(O)C31CC(O4)O2

>  <smiles>  (62) 
[H]OC1([H])C([H])=C([H])C2([H])OC3([H])OC4(C([H])([H])[H])C([H])([H])C([H])([H])C([H])([H])C2([H])C14C3([H])[H]

$$$$
19:0:1
     RDKit          3D

 34 37  0  0  1  0  0  0  0  0999 V2000
    4.7509   -3.2380    2.1489 C   0  0  0  0  0  0  0  0  0  0  0  0
    5.5439   -3.1234    0.8138 C   0  0  2  0  0  0  0  0  0  0  0  0
    6.9759   -2.7015    1.1926 C   0  0  0  0  0  0  0  0  0  0  0  0
    7.9022   -2.2215    0.0790 C   0  0  0  0  0  0  0  0  0  0  0  0
    7.4280   -2.7767   -1.2453 C   0  0  0  0  0  0  0  0  0  0  0  0
    5.9819   -2.2707   -1.4833 C   0  0  1  0  0  0  0  0  0  0  0  0
    5.3316   -2.8855   -2.6685 C   0  0  2  0  0  0  0  0  0  0  0  0
    4.1351   -1.9360   -2.9636 C   0  0  0  0  0  0  0  0  0  0  0  0
    3.6377   -1.0614   -2.0299 C   0  0  0  0  0  0  0  0  0  0  0  0
    4.1049   -1.0679   -0.5306 C   0  0  1  0  0  0  0  0  0  0  0  0
    3.0177   -0.9658    0.3651 O   0  0  0  0  0  0  0  0  0  0  0  0
    4.8610   -2.3991   -0.3678 C   0  0  2  0  0  0  0  0  0  0  0  0
    3.7469   -3.4848   -0.5671 C   0  0  0  0  0  0  0  0  0  0  0  0
    4.6672   -4.5616   -0.8876 C   0  0  1  0  0  0  0  0  0  0  0  0
    5.0645   -4.2600   -2.2369 O   0  0  0  0  0  0  0  0  0  0  0  0
    5.6282   -4.4258    0.1604 O   0  0  0  0  0  0  0  0  0  0  0  0
    4.2464   -2.3023    2.3848 H   0  0  0  0  0  0  0  0  0  0  0  0
    5.4130   -3.4632    2.9889 H   0  0  0  0  0  0  0  0  0  0  0  0
    4.0134   -4.0400    2.1523 H   0  0  0  0  0  0  0  0  0  0  0  0
    6.9332   -1.9157    1.9382 H   0  0  0  0  0  0  0  0  0  0  0  0
    7.4563   -3.5694    1.6515 H   0  0  0  0  0  0  0  0  0  0  0  0
    7.8928   -1.1318    0.0793 H   0  0  0  0  0  0  0  0  0  0  0  0
    8.9391   -2.5156    0.2720 H   0  0  0  0  0  0  0  0  0  0  0  0
    8.0887   -2.4433   -2.0480 H   0  0  0  0  0  0  0  0  0  0  0  0
    7.4972   -3.8555   -1.2430 H   0  0  0  0  0  0  0  0  0  0  0  0
    6.1700   -1.2180   -1.7114 H   0  0  0  0  0  0  0  0  0  0  0  0
    6.0039   -2.8926   -3.5194 H   0  0  0  0  0  0  0  0  0  0  0  0
    3.7427   -1.9342   -3.9670 H   0  0  0  0  0  0  0  0  0  0  0  0
    2.8401   -0.3872   -2.3176 H   0  0  0  0  0  0  0  0  0  0  0  0
    4.7650   -0.2235   -0.3444 H   0  0  0  0  0  0  0  0  0  0  0  0
    2.1708   -1.0409   -0.1029 H   0  0  0  0  0  0  0  0  0  0  0  0
    3.1483   -3.7156    0.3100 H   0  0  0  0  0  0  0  0  0  0  0  0
    3.0108   -3.3848   -1.3615 H   0  0  0  0  0  0  0  0  0  0  0  0
    4.2211   -5.5576   -0.8355 H   0  0  0  0  0  0  0  0  0  0  0  0
  2  1  1  1
  1 17  1  0
  1 18  1  0
  1 19  1  0
  2 12  1  0
  2 16  1  0
  2  3  1  0
  3  4  1  0
  3 20  1  0
  3 21  1  0
  4  5  1  0
  4 22  1  0
  4 23  1  0
  5  6  1  0
  5 24  1  0
  5 25  1  0
  6 12  1  0
  6  7  1  0
  6 26  1  6
  7 15  1  0
  7  8  1  0
  7 27  1  6
  8  9  2  0
  8 28  1  0
  9 10  1  0
  9 29  1  0
 10 11  1  0
 10 12  1  0
 10 30  1  6
 11 31  1  0
 12 13  1  6
 13 14  1  0
 13 32  1  0
 13 33  1  0
 14 15  1  0
 14 16  1  0
 14 34  1  6
M  END
>  <i_m_ct_stereo_status>  (63) 
1

>  <s_m_source_file>  (63) 
/var/tmp/pbs.5076255.sched01/tmp98udq4tg/0t315e5yz.sdf

>  <i_m_source_file_index>  (63) 
26

>  <i_lp_mmshare_version>  (63) 
48012

>  <i_f3d_flags>  (63) 
0

>  <s_epik_input>  (63) 
W0NIM11bQ0BAXTEoW0NAXTIzNClbQ0gyXVtDSDJdW0NIMl1bQ0BIXTJbQ0BASF0oT1tDQEBIXShPMSlbQ0gyXTQpW0NIXT1bQ0hdW0NASF0zW09IXQ==

>  <s_epik_cmdline>  (63) 
J2VwaWtfcHl0aG9uJywgJy1waHQnLCAnMi4wJywgJy1waCcsICc3LjAnLCAnLXRuJywgJzgnLCAnLW1hJywgJzIwMCcsICctaW1hZScsICc8aW5maWxlLm1hZT4nLCAnLW9tYWUnLCAnPG91dGZpbGUubWFlPic=

>  <r_lp_tautomer_probability>  (63) 
1

>  <r_epik_Ionization_Penalty>  (63) 
6.16805e-08

>  <r_epik_Ionization_Penalty_Charging>  (63) 
0

>  <r_epik_Ionization_Penalty_Neutral>  (63) 
6.16805e-08

>  <r_epik_State_Penalty>  (63) 
-0

>  <r_epik_Charging_Adjusted_Penalty>  (63) 
0

>  <i_epik_Tot_Q>  (63) 
0

>  <i_epik_Tot_abs_Q>  (63) 
0

>  <s_epik_Chemistry_Notes>  (63) 
This compound contains an acetal/aminal-like group ( X-CH(R)-Y where X, Y are N, S, or O) that may be acid/base labile, releasing an aldehyde.

>  <s_lp_Force_Field>  (63) 
OPLS3e

>  <r_lp_Energy>  (63) 
94.6342

>  <b_lp_Chiralities_Consistent>  (63) 
1

>  <s_lp_Variant>  (63) 
19:0-1

>  <s_i_glide_gridfile>  (63) 
pfpi4k_grid

>  <i_i_glide_lignum>  (63) 
26

>  <i_i_glide_rotatable_bonds>  (63) 
1

>  <r_i_docking_score>  (63) 
-4.03525

>  <r_i_glide_ligand_efficiency>  (63) 
-0.252203

>  <r_i_glide_ligand_efficiency_sa>  (63) 
-0.635513

>  <r_i_glide_ligand_efficiency_ln>  (63) 
-1.06962

>  <r_i_glide_gscore>  (63) 
-4.03525

>  <r_i_glide_lipo>  (63) 
-0.474955

>  <r_i_glide_hbond>  (63) 
-0.16

>  <r_i_glide_metal>  (63) 
-0

>  <r_i_glide_rewards>  (63) 
-1.89354

>  <r_i_glide_evdw>  (63) 
-15.7708

>  <r_i_glide_ecoul>  (63) 
-4.65723

>  <r_i_glide_erotb>  (63) 
0

>  <r_i_glide_esite>  (63) 
-0.0196316

>  <r_i_glide_emodel>  (63) 
-25.7773

>  <r_i_glide_energy>  (63) 
-20.428

>  <r_i_glide_einternal>  (63) 
0.999444

>  <r_i_glide_intrahb_reward>  (63) 
-0

>  <i_i_glide_confnum>  (63) 
2

>  <i_i_glide_posenum>  (63) 
2

>  <r_i_glide_eff_state_penalty>  (63) 
0

>  <ligand_id>  (63) 
19

>  <original_smiles>  (63) 
CC12CCCC3C4C=CC(O)C31CC(O4)O2

>  <smiles>  (63) 
[H]OC1([H])C([H])=C([H])C2([H])OC3([H])OC4(C([H])([H])[H])C([H])([H])C([H])([H])C([H])([H])C2([H])C14C3([H])[H]

$$$$
19:0:2
     RDKit          3D

 34 37  0  0  1  0  0  0  0  0999 V2000
    4.3821   -1.6340   -2.5700 C   0  0  0  0  0  0  0  0  0  0  0  0
    5.2040   -1.9701   -1.2952 C   0  0  2  0  0  0  0  0  0  0  0  0
    6.4718   -2.7457   -1.7595 C   0  0  0  0  0  0  0  0  0  0  0  0
    7.2848   -3.4227   -0.6588 C   0  0  0  0  0  0  0  0  0  0  0  0
    7.0338   -2.7663    0.6800 C   0  0  0  0  0  0  0  0  0  0  0  0
    5.5333   -2.9205    0.9988 C   0  0  1  0  0  0  0  0  0  0  0  0
    5.1060   -2.1829    2.2205 C   0  0  2  0  0  0  0  0  0  0  0  0
    3.7165   -2.8031    2.5639 C   0  0  0  0  0  0  0  0  0  0  0  0
    2.9750   -3.5154    1.6516 C   0  0  0  0  0  0  0  0  0  0  0  0
    3.3595   -3.6097    0.1414 C   0  0  1  0  0  0  0  0  0  0  0  0
    2.2158   -3.4538   -0.6818 O   0  0  0  0  0  0  0  0  0  0  0  0
    4.4235   -2.5014   -0.0641 C   0  0  2  0  0  0  0  0  0  0  0  0
    3.6301   -1.1755    0.1996 C   0  0  0  0  0  0  0  0  0  0  0  0
    4.8050   -0.3700    0.4800 C   0  0  1  0  0  0  0  0  0  0  0  0
    5.1985   -0.7734    1.8103 O   0  0  0  0  0  0  0  0  0  0  0  0
    5.6423   -0.7348   -0.6286 O   0  0  0  0  0  0  0  0  0  0  0  0
    3.6412   -2.4081   -2.7694 H   0  0  0  0  0  0  0  0  0  0  0  0
    5.0114   -1.5793   -3.4568 H   0  0  0  0  0  0  0  0  0  0  0  0
    3.8802   -0.6680   -2.5309 H   0  0  0  0  0  0  0  0  0  0  0  0
    6.2134   -3.4932   -2.5101 H   0  0  0  0  0  0  0  0  0  0  0  0
    7.1343   -2.0455   -2.2679 H   0  0  0  0  0  0  0  0  0  0  0  0
    6.9660   -4.4583   -0.5637 H   0  0  0  0  0  0  0  0  0  0  0  0
    8.3483   -3.4304   -0.9082 H   0  0  0  0  0  0  0  0  0  0  0  0
    7.6146   -3.2982    1.4325 H   0  0  0  0  0  0  0  0  0  0  0  0
    7.3806   -1.7316    0.6941 H   0  0  0  0  0  0  0  0  0  0  0  0
    5.4736   -3.9914    1.2092 H   0  0  0  0  0  0  0  0  0  0  0  0
    5.7834   -2.3702    3.0567 H   0  0  0  0  0  0  0  0  0  0  0  0
    3.3874   -2.7154    3.5875 H   0  0  0  0  0  0  0  0  0  0  0  0
    2.0430   -3.9742    1.9479 H   0  0  0  0  0  0  0  0  0  0  0  0
    3.7652   -4.5993   -0.0660 H   0  0  0  0  0  0  0  0  0  0  0  0
    1.9772   -2.5331   -0.7205 H   0  0  0  0  0  0  0  0  0  0  0  0
    3.0675   -0.7820   -0.6421 H   0  0  0  0  0  0  0  0  0  0  0  0
    2.9307   -1.0895    1.0260 H   0  0  0  0  0  0  0  0  0  0  0  0
    4.6008    0.7012    0.4819 H   0  0  0  0  0  0  0  0  0  0  0  0
  2  1  1  6
  1 17  1  0
  1 18  1  0
  1 19  1  0
  2 12  1  0
  2 16  1  0
  2  3  1  0
  3  4  1  0
  3 20  1  0
  3 21  1  0
  4  5  1  0
  4 22  1  0
  4 23  1  0
  5  6  1  0
  5 24  1  0
  5 25  1  0
  6 12  1  0
  6  7  1  0
  6 26  1  1
  7 15  1  0
  7  8  1  0
  7 27  1  1
  8  9  2  0
  8 28  1  0
  9 10  1  0
  9 29  1  0
 10 11  1  0
 10 12  1  0
 10 30  1  1
 11 31  1  0
 12 13  1  1
 13 14  1  0
 13 32  1  0
 13 33  1  0
 14 15  1  0
 14 16  1  0
 14 34  1  1
M  END
>  <i_m_ct_stereo_status>  (64) 
1

>  <s_m_source_file>  (64) 
/var/tmp/pbs.5076255.sched01/tmp98udq4tg/0t315e5yz.sdf

>  <i_m_source_file_index>  (64) 
26

>  <i_lp_mmshare_version>  (64) 
48012

>  <i_f3d_flags>  (64) 
0

>  <s_epik_input>  (64) 
W0NIM11bQ0BAXTEoW0NAXTIzNClbQ0gyXVtDSDJdW0NIMl1bQ0BIXTJbQ0BASF0oT1tDQEBIXShPMSlbQ0gyXTQpW0NIXT1bQ0hdW0NASF0zW09IXQ==

>  <s_epik_cmdline>  (64) 
J2VwaWtfcHl0aG9uJywgJy1waHQnLCAnMi4wJywgJy1waCcsICc3LjAnLCAnLXRuJywgJzgnLCAnLW1hJywgJzIwMCcsICctaW1hZScsICc8aW5maWxlLm1hZT4nLCAnLW9tYWUnLCAnPG91dGZpbGUubWFlPic=

>  <r_lp_tautomer_probability>  (64) 
1

>  <r_epik_Ionization_Penalty>  (64) 
6.16805e-08

>  <r_epik_Ionization_Penalty_Charging>  (64) 
0

>  <r_epik_Ionization_Penalty_Neutral>  (64) 
6.16805e-08

>  <r_epik_State_Penalty>  (64) 
-0

>  <r_epik_Charging_Adjusted_Penalty>  (64) 
0

>  <i_epik_Tot_Q>  (64) 
0

>  <i_epik_Tot_abs_Q>  (64) 
0

>  <s_epik_Chemistry_Notes>  (64) 
This compound contains an acetal/aminal-like group ( X-CH(R)-Y where X, Y are N, S, or O) that may be acid/base labile, releasing an aldehyde.

>  <s_lp_Force_Field>  (64) 
OPLS3e

>  <r_lp_Energy>  (64) 
94.6342

>  <b_lp_Chiralities_Consistent>  (64) 
1

>  <s_lp_Variant>  (64) 
19:0-1

>  <s_i_glide_gridfile>  (64) 
pfpi4k_grid

>  <i_i_glide_lignum>  (64) 
26

>  <i_i_glide_rotatable_bonds>  (64) 
1

>  <r_i_docking_score>  (64) 
-4.00209

>  <r_i_glide_ligand_efficiency>  (64) 
-0.250131

>  <r_i_glide_ligand_efficiency_sa>  (64) 
-0.63029

>  <r_i_glide_ligand_efficiency_ln>  (64) 
-1.06083

>  <r_i_glide_gscore>  (64) 
-4.00209

>  <r_i_glide_lipo>  (64) 
-0.387689

>  <r_i_glide_hbond>  (64) 
-0.175176

>  <r_i_glide_metal>  (64) 
-0

>  <r_i_glide_rewards>  (64) 
-2.12362

>  <r_i_glide_evdw>  (64) 
-18.2566

>  <r_i_glide_ecoul>  (64) 
-2.6852

>  <r_i_glide_erotb>  (64) 
0

>  <r_i_glide_esite>  (64) 
0

>  <r_i_glide_emodel>  (64) 
-26.7911

>  <r_i_glide_energy>  (64) 
-20.9418

>  <r_i_glide_einternal>  (64) 
0.119373

>  <r_i_glide_intrahb_reward>  (64) 
-0

>  <i_i_glide_confnum>  (64) 
1

>  <i_i_glide_posenum>  (64) 
40

>  <r_i_glide_eff_state_penalty>  (64) 
0

>  <ligand_id>  (64) 
19

>  <original_smiles>  (64) 
CC12CCCC3C4C=CC(O)C31CC(O4)O2

>  <smiles>  (64) 
[H]OC1([H])C([H])=C([H])C2([H])OC3([H])OC4(C([H])([H])[H])C([H])([H])C([H])([H])C([H])([H])C2([H])C14C3([H])[H]

$$$$
20:0:0
     RDKit          3D

 69 74  0  0  1  0  0  0  0  0999 V2000
    0.8380   -3.0991    3.6733 C   0  0  0  0  0  0  0  0  0  0  0  0
    1.8603   -4.1305    3.1192 C   0  0  2  0  0  0  0  0  0  0  0  0
    2.2629   -5.0327    4.2998 C   0  0  0  0  0  0  0  0  0  0  0  0
    3.6224   -5.7112    4.1414 C   0  0  0  0  0  0  0  0  0  0  0  0
    4.0669   -5.9198    2.7064 C   0  0  1  0  0  0  0  0  0  0  0  0
    3.3458   -6.9058    1.7629 C   0  0  0  0  0  0  0  0  0  0  0  0
    4.1741   -8.1125    1.2961 C   0  0  0  0  0  0  0  0  0  0  0  0
    2.0111   -7.5173    2.2229 C   0  0  0  0  0  0  0  0  0  0  0  0
    3.2709   -5.7353    0.7842 C   0  0  0  0  0  0  0  0  0  0  0  0
    4.0178   -4.6994    1.6820 C   0  0  1  0  0  0  0  0  0  0  0  0
    3.1141   -3.5600    2.3438 C   0  0  1  0  0  0  0  0  0  0  0  0
    2.6544   -2.4469    1.3763 C   0  0  0  0  0  0  0  0  0  0  0  0
    3.6989   -1.4386    0.8877 C   0  0  2  0  0  0  0  0  0  0  0  0
    3.5069   -1.2502   -0.5069 O   0  0  0  0  0  0  0  0  0  0  0  0
    4.3561   -1.7086   -1.4882 C   0  0  2  0  0  0  0  0  0  0  0  0
    5.5466   -0.9797   -1.4717 O   0  0  0  0  0  0  0  0  0  0  0  0
    3.7263   -1.3945   -2.8284 C   0  0  0  0  0  0  0  0  0  0  0  0
    3.3081   -0.3061   -3.2136 O   0  0  0  0  0  0  0  0  0  0  0  0
    3.7891   -2.5874   -3.7715 C   0  0  0  0  0  0  0  0  0  0  0  0
    4.7139   -3.5654   -3.0172 C   0  0  0  0  0  0  0  0  0  0  0  0
    4.4997   -3.2778   -1.4879 C   0  0  2  0  0  0  0  0  0  0  0  0
    3.2312   -3.8561   -1.3362 O   0  0  0  0  0  0  0  0  0  0  0  0
    5.5910   -3.9833   -0.5622 C   0  0  1  0  0  0  0  0  0  0  0  0
    7.0479   -3.4219   -0.7114 C   0  0  1  0  0  0  0  0  0  0  0  0
    7.4984   -2.8394   -1.9191 O   0  0  0  0  0  0  0  0  0  0  0  0
    7.2275   -2.4955    0.4955 C   0  0  0  0  0  0  0  0  0  0  0  0
    6.0158   -2.7415    1.4562 C   0  0  1  0  0  0  0  0  0  0  0  0
    5.0813   -1.5056    1.5914 C   0  0  1  0  0  0  0  0  0  0  0  0
    5.7383   -0.2690    1.4780 O   0  0  0  0  0  0  0  0  0  0  0  0
    5.4289   -4.1357    1.0336 C   0  0  1  0  0  0  0  0  0  0  0  0
    6.5533   -5.1290    1.5245 C   0  0  0  0  0  0  0  0  0  0  0  0
    1.3164   -2.3155    4.2489 H   0  0  0  0  0  0  0  0  0  0  0  0
    0.1185   -3.5983    4.3309 H   0  0  0  0  0  0  0  0  0  0  0  0
    0.2349   -2.6477    2.8780 H   0  0  0  0  0  0  0  0  0  0  0  0
    1.2897   -4.6991    2.4090 H   0  0  0  0  0  0  0  0  0  0  0  0
    2.2563   -4.4784    5.2334 H   0  0  0  0  0  0  0  0  0  0  0  0
    1.4911   -5.7996    4.4276 H   0  0  0  0  0  0  0  0  0  0  0  0
    4.3548   -5.0760    4.6402 H   0  0  0  0  0  0  0  0  0  0  0  0
    3.6383   -6.6519    4.6979 H   0  0  0  0  0  0  0  0  0  0  0  0
    5.0335   -6.3967    2.7999 H   0  0  0  0  0  0  0  0  0  0  0  0
    3.6559   -8.7168    0.5572 H   0  0  0  0  0  0  0  0  0  0  0  0
    4.4354   -8.7684    2.1292 H   0  0  0  0  0  0  0  0  0  0  0  0
    5.1131   -7.8093    0.8294 H   0  0  0  0  0  0  0  0  0  0  0  0
    1.6133   -8.2265    1.4972 H   0  0  0  0  0  0  0  0  0  0  0  0
    1.2305   -6.7778    2.3608 H   0  0  0  0  0  0  0  0  0  0  0  0
    2.1225   -8.0474    3.1721 H   0  0  0  0  0  0  0  0  0  0  0  0
    3.8077   -5.9987   -0.1285 H   0  0  0  0  0  0  0  0  0  0  0  0
    2.2476   -5.4535    0.5389 H   0  0  0  0  0  0  0  0  0  0  0  0
    3.6825   -3.1059    3.1425 H   0  0  0  0  0  0  0  0  0  0  0  0
    2.0723   -2.8520    0.5563 H   0  0  0  0  0  0  0  0  0  0  0  0
    1.9335   -1.8086    1.8867 H   0  0  0  0  0  0  0  0  0  0  0  0
    3.3116   -0.4858    1.2448 H   0  0  0  0  0  0  0  0  0  0  0  0
    5.2983   -0.0700   -1.3905 H   0  0  0  0  0  0  0  0  0  0  0  0
    4.2158   -2.2772   -4.7131 H   0  0  0  0  0  0  0  0  0  0  0  0
    2.7883   -2.9981   -3.9155 H   0  0  0  0  0  0  0  0  0  0  0  0
    5.7208   -3.3394   -3.3540 H   0  0  0  0  0  0  0  0  0  0  0  0
    4.5395   -4.5982   -3.3042 H   0  0  0  0  0  0  0  0  0  0  0  0
    3.2243   -4.7370   -1.7219 H   0  0  0  0  0  0  0  0  0  0  0  0
    5.6227   -4.9999   -0.9530 H   0  0  0  0  0  0  0  0  0  0  0  0
    7.7590   -4.2389   -0.6177 H   0  0  0  0  0  0  0  0  0  0  0  0
    7.6973   -3.5037   -2.5581 H   0  0  0  0  0  0  0  0  0  0  0  0
    8.1635   -2.7635    0.9808 H   0  0  0  0  0  0  0  0  0  0  0  0
    7.3729   -1.4661    0.1925 H   0  0  0  0  0  0  0  0  0  0  0  0
    6.4217   -2.8540    2.4576 H   0  0  0  0  0  0  0  0  0  0  0  0
    4.8421   -1.4637    2.6563 H   0  0  0  0  0  0  0  0  0  0  0  0
    6.5515   -0.3006    1.9542 H   0  0  0  0  0  0  0  0  0  0  0  0
    7.5899   -4.9081    1.2747 H   0  0  0  0  0  0  0  0  0  0  0  0
    6.4030   -6.1393    1.1500 H   0  0  0  0  0  0  0  0  0  0  0  0
    6.6216   -5.1451    2.6120 H   0  0  0  0  0  0  0  0  0  0  0  0
  1  2  1  0
  1 32  1  0
  1 33  1  0
  1 34  1  0
  2 11  1  0
  2  3  1  0
  2 35  1  6
  3  4  1  0
  3 36  1  0
  3 37  1  0
  4  5  1  0
  4 38  1  0
  4 39  1  0
  5 10  1  0
  5  6  1  0
  5 40  1  1
  6  7  1  0
  6  8  1  0
  6  9  1  0
  7 41  1  0
  7 42  1  0
  7 43  1  0
  8 44  1  0
  8 45  1  0
  8 46  1  0
 10  9  1  6
  9 47  1  0
  9 48  1  0
 10 30  1  0
 10 11  1  0
 11 12  1  0
 11 49  1  1
 12 13  1  0
 12 50  1  0
 12 51  1  0
 13 28  1  0
 13 14  1  0
 13 52  1  1
 14 15  1  0
 15 21  1  0
 15 16  1  6
 15 17  1  0
 16 53  1  0
 17 19  1  0
 17 18  2  0
 19 20  1  0
 19 55  1  0
 19 54  1  0
 20 21  1  0
 20 56  1  0
 20 57  1  0
 21 22  1  1
 21 23  1  0
 22 58  1  0
 23 30  1  0
 23 24  1  0
 23 59  1  6
 24 25  1  0
 24 26  1  0
 24 60  1  1
 25 61  1  0
 26 27  1  0
 26 62  1  0
 26 63  1  0
 27 28  1  0
 27 30  1  0
 27 64  1  1
 28 29  1  0
 28 65  1  1
 29 66  1  0
 30 31  1  1
 31 67  1  0
 31 68  1  0
 31 69  1  0
M  END
>  <i_m_ct_stereo_status>  (65) 
1

>  <s_m_source_file>  (65) 
/var/tmp/pbs.5076255.sched01/tmp98udq4tg/0t315e5yz.sdf

>  <i_m_source_file_index>  (65) 
27

>  <i_lp_mmshare_version>  (65) 
48012

>  <i_f3d_flags>  (65) 
0

>  <s_epik_input>  (65) 
W0NIM11DKFtDSDNdKShbQ0gyXTEpW0NAQEhdKFtDQEBdMTIzKVtDSDJdW0NIMl1bQ0BASF0oW0NIM10pW0NAQEhdMltDSDJdW0NAQEhdNE9bQ0BAXTUoW09IXSlbQ0BAXShbT0hdKShbQ0gyXVtDSF09QzVbT0hdKVtDQEBIXTZbQ0BAXTMoW0NIM10pW0NASF0oW0NASF00W09IXSlbQ0gyXVtDQEBIXTZbT0hd

>  <s_epik_cmdline>  (65) 
J2VwaWtfcHl0aG9uJywgJy1waHQnLCAnMi4wJywgJy1waCcsICc3LjAnLCAnLXRuJywgJzgnLCAnLW1hJywgJzIwMCcsICctaW1hZScsICc8aW5maWxlLm1hZT4nLCAnLW9tYWUnLCAnPG91dGZpbGUubWFlPic=

>  <r_lp_tautomer_probability>  (65) 
1

>  <r_epik_Ionization_Penalty>  (65) 
1.50055e-06

>  <r_epik_Ionization_Penalty_Charging>  (65) 
0

>  <r_epik_Ionization_Penalty_Neutral>  (65) 
1.50055e-06

>  <r_epik_State_Penalty>  (65) 
-0

>  <r_epik_Charging_Adjusted_Penalty>  (65) 
0

>  <i_epik_Tot_Q>  (65) 
0

>  <i_epik_Tot_abs_Q>  (65) 
0

>  <s_lp_Force_Field>  (65) 
OPLS3e

>  <r_lp_Energy>  (65) 
130.249

>  <b_lp_Chiralities_Consistent>  (65) 
1

>  <s_lp_Variant>  (65) 
20:0-1

>  <s_i_glide_gridfile>  (65) 
pfpi4k_grid

>  <i_i_glide_lignum>  (65) 
27

>  <i_i_glide_rotatable_bonds>  (65) 
4

>  <r_i_docking_score>  (65) 
-4.14369

>  <r_i_glide_ligand_efficiency>  (65) 
-0.133667

>  <r_i_glide_ligand_efficiency_sa>  (65) 
-0.4199

>  <r_i_glide_ligand_efficiency_ln>  (65) 
-0.934529

>  <r_i_glide_gscore>  (65) 
-4.14369

>  <r_i_glide_lipo>  (65) 
-0.963246

>  <r_i_glide_hbond>  (65) 
0

>  <r_i_glide_metal>  (65) 
-0

>  <r_i_glide_rewards>  (65) 
-0.446143

>  <r_i_glide_evdw>  (65) 
-25.6177

>  <r_i_glide_ecoul>  (65) 
-9.25727

>  <r_i_glide_erotb>  (65) 
0

>  <r_i_glide_esite>  (65) 
-0.0648246

>  <r_i_glide_emodel>  (65) 
-41.2896

>  <r_i_glide_energy>  (65) 
-34.8749

>  <r_i_glide_einternal>  (65) 
3.11122

>  <r_i_glide_intrahb_reward>  (65) 
-0

>  <i_i_glide_confnum>  (65) 
2

>  <i_i_glide_posenum>  (65) 
36

>  <r_i_glide_eff_state_penalty>  (65) 
0

>  <ligand_id>  (65) 
20

>  <original_smiles>  (65) 
CC1CCC2C(C)(C)CC23C1CC1OC2(O)C(O)=CCC2(O)C2C(O)CC(C1O)C23C

>  <smiles>  (65) 
[H]OC12OC3([H])C([H])([H])C4([H])C([H])(C([H])([H])[H])C([H])([H])C([H])([H])C5([H])C(C([H])([H])[H])(C([H])([H])[H])C([H])([H])C45C4(C([H])([H])[H])C([H])(C([H])([H])C([H])(O[H])C4([H])C1(O[H])C([H])([H])C([H])([H])C2=O)C3([H])O[H]

$$$$
20:0:1
     RDKit          3D

 69 74  0  0  1  0  0  0  0  0999 V2000
    0.8764   -3.2448    3.6930 C   0  0  0  0  0  0  0  0  0  0  0  0
    1.9171   -4.2323    3.1198 C   0  0  2  0  0  0  0  0  0  0  0  0
    2.3529   -5.1246    4.2952 C   0  0  0  0  0  0  0  0  0  0  0  0
    3.7272   -5.7631    4.1279 C   0  0  0  0  0  0  0  0  0  0  0  0
    4.1686   -5.9394    2.6839 C   0  0  1  0  0  0  0  0  0  0  0  0
    3.4820   -6.9413    1.7364 C   0  0  0  0  0  0  0  0  0  0  0  0
    4.3476   -8.1149    1.2549 C   0  0  0  0  0  0  0  0  0  0  0  0
    2.1800   -7.6095    2.1856 C   0  0  0  0  0  0  0  0  0  0  0  0
    3.3693   -5.7635    0.7710 C   0  0  0  0  0  0  0  0  0  0  0  0
    4.0768   -4.7092    1.6798 C   0  0  1  0  0  0  0  0  0  0  0  0
    3.1479   -3.6151    2.3544 C   0  0  1  0  0  0  0  0  0  0  0  0
    2.6413   -2.5151    1.3926 C   0  0  0  0  0  0  0  0  0  0  0  0
    3.6425   -1.4685    0.9088 C   0  0  2  0  0  0  0  0  0  0  0  0
    3.4275   -1.2835   -0.4884 O   0  0  0  0  0  0  0  0  0  0  0  0
    4.3095   -1.6767   -1.4593 C   0  0  2  0  0  0  0  0  0  0  0  0
    5.4546   -0.8775   -1.4205 O   0  0  0  0  0  0  0  0  0  0  0  0
    3.6761   -1.4081   -2.8069 C   0  0  0  0  0  0  0  0  0  0  0  0
    3.2078   -0.3543   -3.2232 O   0  0  0  0  0  0  0  0  0  0  0  0
    3.7800   -2.5752   -3.7502 C   0  0  0  0  0  0  0  0  0  0  0  0
    4.7273   -3.5277   -3.0066 C   0  0  0  0  0  0  0  0  0  0  0  0
    4.5115   -3.2370   -1.4788 C   0  0  2  0  0  0  0  0  0  0  0  0
    3.2548   -3.8530   -1.3507 O   0  0  0  0  0  0  0  0  0  0  0  0
    5.6228   -3.9311   -0.5562 C   0  0  1  0  0  0  0  0  0  0  0  0
    7.0599   -3.3342   -0.6987 C   0  0  1  0  0  0  0  0  0  0  0  0
    7.4815   -2.6989   -1.8742 O   0  0  0  0  0  0  0  0  0  0  0  0
    7.2029   -2.3998    0.4993 C   0  0  0  0  0  0  0  0  0  0  0  0
    6.0036   -2.6934    1.4613 C   0  0  1  0  0  0  0  0  0  0  0  0
    5.0194   -1.5075    1.6120 C   0  0  1  0  0  0  0  0  0  0  0  0
    5.6179   -0.2611    1.5133 O   0  0  0  0  0  0  0  0  0  0  0  0
    5.4662   -4.1015    1.0297 C   0  0  1  0  0  0  0  0  0  0  0  0
    6.6274   -5.0533    1.5091 C   0  0  0  0  0  0  0  0  0  0  0  0
    1.3348   -2.4523    4.2865 H   0  0  0  0  0  0  0  0  0  0  0  0
    0.1643   -3.7687    4.3346 H   0  0  0  0  0  0  0  0  0  0  0  0
    0.2843   -2.7751    2.9077 H   0  0  0  0  0  0  0  0  0  0  0  0
    1.3590   -4.8162    2.4035 H   0  0  0  0  0  0  0  0  0  0  0  0
    2.3133   -4.5804    5.2394 H   0  0  0  0  0  0  0  0  0  0  0  0
    1.6121   -5.9203    4.4090 H   0  0  0  0  0  0  0  0  0  0  0  0
    4.4432   -5.1120    4.6306 H   0  0  0  0  0  0  0  0  0  0  0  0
    3.7717   -6.7081    4.6682 H   0  0  0  0  0  0  0  0  0  0  0  0
    5.1483   -6.3893    2.7532 H   0  0  0  0  0  0  0  0  0  0  0  0
    3.8410   -8.7294    0.5121 H   0  0  0  0  0  0  0  0  0  0  0  0
    4.6311   -8.7707    2.0808 H   0  0  0  0  0  0  0  0  0  0  0  0
    5.2707   -7.7780    0.7894 H   0  0  0  0  0  0  0  0  0  0  0  0
    1.8035   -8.3252    1.4550 H   0  0  0  0  0  0  0  0  0  0  0  0
    1.3713   -6.8965    2.3327 H   0  0  0  0  0  0  0  0  0  0  0  0
    2.3076   -8.1423    3.1324 H   0  0  0  0  0  0  0  0  0  0  0  0
    3.9124   -6.0009   -0.1390 H   0  0  0  0  0  0  0  0  0  0  0  0
    2.3348   -5.5135    0.5348 H   0  0  0  0  0  0  0  0  0  0  0  0
    3.6946   -3.1392    3.1631 H   0  0  0  0  0  0  0  0  0  0  0  0
    2.0671   -2.9316    0.5690 H   0  0  0  0  0  0  0  0  0  0  0  0
    1.9105   -1.8986    1.9108 H   0  0  0  0  0  0  0  0  0  0  0  0
    3.2219   -0.5298    1.2762 H   0  0  0  0  0  0  0  0  0  0  0  0
    5.1486    0.0168   -1.4885 H   0  0  0  0  0  0  0  0  0  0  0  0
    4.1854   -2.2373   -4.7131 H   0  0  0  0  0  0  0  0  0  0  0  0
    2.7806   -3.0134   -3.8988 H   0  0  0  0  0  0  0  0  0  0  0  0
    5.7304   -3.2635   -3.3422 H   0  0  0  0  0  0  0  0  0  0  0  0
    4.5854   -4.5718   -3.2976 H   0  0  0  0  0  0  0  0  0  0  0  0
    3.2781   -4.7235   -1.7091 H   0  0  0  0  0  0  0  0  0  0  0  0
    5.6798   -4.9419   -0.9654 H   0  0  0  0  0  0  0  0  0  0  0  0
    7.7928   -4.1332   -0.6245 H   0  0  0  0  0  0  0  0  0  0  0  0
    7.7257   -3.3499   -2.5238 H   0  0  0  0  0  0  0  0  0  0  0  0
    8.1522   -2.6445    0.9676 H   0  0  0  0  0  0  0  0  0  0  0  0
    7.3251   -1.3600    0.2106 H   0  0  0  0  0  0  0  0  0  0  0  0
    6.4193   -2.7908    2.4598 H   0  0  0  0  0  0  0  0  0  0  0  0
    4.7898   -1.4772    2.6776 H   0  0  0  0  0  0  0  0  0  0  0  0
    5.7452   -0.0811    0.5967 H   0  0  0  0  0  0  0  0  0  0  0  0
    7.6546   -4.7962    1.2665 H   0  0  0  0  0  0  0  0  0  0  0  0
    6.5088   -6.0655    1.1230 H   0  0  0  0  0  0  0  0  0  0  0  0
    6.6948   -5.0765    2.5980 H   0  0  0  0  0  0  0  0  0  0  0  0
  1  2  1  0
  1 32  1  0
  1 33  1  0
  1 34  1  0
  2 11  1  0
  2  3  1  0
  2 35  1  6
  3  4  1  0
  3 36  1  0
  3 37  1  0
  4  5  1  0
  4 38  1  0
  4 39  1  0
  5 10  1  0
  5  6  1  0
  5 40  1  1
  6  7  1  0
  6  8  1  0
  6  9  1  0
  7 41  1  0
  7 42  1  0
  7 43  1  0
  8 44  1  0
  8 45  1  0
  8 46  1  0
 10  9  1  6
  9 47  1  0
  9 48  1  0
 10 30  1  0
 10 11  1  0
 11 12  1  0
 11 49  1  1
 12 13  1  0
 12 50  1  0
 12 51  1  0
 13 28  1  0
 13 14  1  0
 13 52  1  1
 14 15  1  0
 15 21  1  0
 15 16  1  6
 15 17  1  0
 16 53  1  0
 17 19  1  0
 17 18  2  0
 19 20  1  0
 19 55  1  0
 19 54  1  0
 20 21  1  0
 20 56  1  0
 20 57  1  0
 21 22  1  1
 21 23  1  0
 22 58  1  0
 23 30  1  0
 23 24  1  0
 23 59  1  6
 24 25  1  0
 24 26  1  0
 24 60  1  1
 25 61  1  0
 26 27  1  0
 26 62  1  0
 26 63  1  0
 27 28  1  0
 27 30  1  0
 27 64  1  1
 28 29  1  0
 28 65  1  1
 29 66  1  0
 30 31  1  1
 31 67  1  0
 31 68  1  0
 31 69  1  0
M  END
>  <i_m_ct_stereo_status>  (66) 
1

>  <s_m_source_file>  (66) 
/var/tmp/pbs.5076255.sched01/tmp98udq4tg/0t315e5yz.sdf

>  <i_m_source_file_index>  (66) 
27

>  <i_lp_mmshare_version>  (66) 
48012

>  <i_f3d_flags>  (66) 
0

>  <s_epik_input>  (66) 
W0NIM11DKFtDSDNdKShbQ0gyXTEpW0NAQEhdKFtDQEBdMTIzKVtDSDJdW0NIMl1bQ0BASF0oW0NIM10pW0NAQEhdMltDSDJdW0NAQEhdNE9bQ0BAXTUoW09IXSlbQ0BAXShbT0hdKShbQ0gyXVtDSF09QzVbT0hdKVtDQEBIXTZbQ0BAXTMoW0NIM10pW0NASF0oW0NASF00W09IXSlbQ0gyXVtDQEBIXTZbT0hd

>  <s_epik_cmdline>  (66) 
J2VwaWtfcHl0aG9uJywgJy1waHQnLCAnMi4wJywgJy1waCcsICc3LjAnLCAnLXRuJywgJzgnLCAnLW1hJywgJzIwMCcsICctaW1hZScsICc8aW5maWxlLm1hZT4nLCAnLW9tYWUnLCAnPG91dGZpbGUubWFlPic=

>  <r_lp_tautomer_probability>  (66) 
1

>  <r_epik_Ionization_Penalty>  (66) 
1.50055e-06

>  <r_epik_Ionization_Penalty_Charging>  (66) 
0

>  <r_epik_Ionization_Penalty_Neutral>  (66) 
1.50055e-06

>  <r_epik_State_Penalty>  (66) 
-0

>  <r_epik_Charging_Adjusted_Penalty>  (66) 
0

>  <i_epik_Tot_Q>  (66) 
0

>  <i_epik_Tot_abs_Q>  (66) 
0

>  <s_lp_Force_Field>  (66) 
OPLS3e

>  <r_lp_Energy>  (66) 
130.249

>  <b_lp_Chiralities_Consistent>  (66) 
1

>  <s_lp_Variant>  (66) 
20:0-1

>  <s_i_glide_gridfile>  (66) 
pfpi4k_grid

>  <i_i_glide_lignum>  (66) 
27

>  <i_i_glide_rotatable_bonds>  (66) 
4

>  <r_i_docking_score>  (66) 
-4.13278

>  <r_i_glide_ligand_efficiency>  (66) 
-0.133315

>  <r_i_glide_ligand_efficiency_sa>  (66) 
-0.418794

>  <r_i_glide_ligand_efficiency_ln>  (66) 
-0.932068

>  <r_i_glide_gscore>  (66) 
-4.13278

>  <r_i_glide_lipo>  (66) 
-0.993873

>  <r_i_glide_hbond>  (66) 
0

>  <r_i_glide_metal>  (66) 
-0

>  <r_i_glide_rewards>  (66) 
-0.446143

>  <r_i_glide_evdw>  (66) 
-26.2461

>  <r_i_glide_ecoul>  (66) 
-8.74376

>  <r_i_glide_erotb>  (66) 
0

>  <r_i_glide_esite>  (66) 
-0.0688926

>  <r_i_glide_emodel>  (66) 
-41.2881

>  <r_i_glide_energy>  (66) 
-34.9898

>  <r_i_glide_einternal>  (66) 
2.85554

>  <r_i_glide_intrahb_reward>  (66) 
-0

>  <i_i_glide_confnum>  (66) 
1

>  <i_i_glide_posenum>  (66) 
21

>  <r_i_glide_eff_state_penalty>  (66) 
0

>  <ligand_id>  (66) 
20

>  <original_smiles>  (66) 
CC1CCC2C(C)(C)CC23C1CC1OC2(O)C(O)=CCC2(O)C2C(O)CC(C1O)C23C

>  <smiles>  (66) 
[H]OC12OC3([H])C([H])([H])C4([H])C([H])(C([H])([H])[H])C([H])([H])C([H])([H])C5([H])C(C([H])([H])[H])(C([H])([H])[H])C([H])([H])C45C4(C([H])([H])[H])C([H])(C([H])([H])C([H])(O[H])C4([H])C1(O[H])C([H])([H])C([H])([H])C2=O)C3([H])O[H]

$$$$
20:0:2
     RDKit          3D

 69 74  0  0  1  0  0  0  0  0999 V2000
    0.8465   -3.1105    3.6777 C   0  0  0  0  0  0  0  0  0  0  0  0
    1.8682   -4.1340    3.1206 C   0  0  2  0  0  0  0  0  0  0  0  0
    2.2660   -5.0455    4.2957 C   0  0  0  0  0  0  0  0  0  0  0  0
    3.6285   -5.7218    4.1387 C   0  0  0  0  0  0  0  0  0  0  0  0
    4.0749   -5.9280    2.7009 C   0  0  1  0  0  0  0  0  0  0  0  0
    3.3491   -6.9129    1.7551 C   0  0  0  0  0  0  0  0  0  0  0  0
    4.1829   -8.1169    1.2887 C   0  0  0  0  0  0  0  0  0  0  0  0
    2.0162   -7.5269    2.2148 C   0  0  0  0  0  0  0  0  0  0  0  0
    3.2764   -5.7390    0.7810 C   0  0  0  0  0  0  0  0  0  0  0  0
    4.0217   -4.7071    1.6807 C   0  0  1  0  0  0  0  0  0  0  0  0
    3.1183   -3.5701    2.3435 C   0  0  1  0  0  0  0  0  0  0  0  0
    2.6579   -2.4514    1.3798 C   0  0  0  0  0  0  0  0  0  0  0  0
    3.7042   -1.4448    0.8890 C   0  0  2  0  0  0  0  0  0  0  0  0
    3.5113   -1.2535   -0.5072 O   0  0  0  0  0  0  0  0  0  0  0  0
    4.3586   -1.7188   -1.4860 C   0  0  2  0  0  0  0  0  0  0  0  0
    5.5491   -0.9818   -1.4643 O   0  0  0  0  0  0  0  0  0  0  0  0
    3.7330   -1.4108   -2.8277 C   0  0  0  0  0  0  0  0  0  0  0  0
    3.3011   -0.3179   -3.2066 O   0  0  0  0  0  0  0  0  0  0  0  0
    3.7983   -2.5954   -3.7674 C   0  0  0  0  0  0  0  0  0  0  0  0
    4.7273   -3.5700   -3.0111 C   0  0  0  0  0  0  0  0  0  0  0  0
    4.5145   -3.2788   -1.4861 C   0  0  2  0  0  0  0  0  0  0  0  0
    3.2382   -3.8548   -1.3373 O   0  0  0  0  0  0  0  0  0  0  0  0
    5.6007   -3.9841   -0.5545 C   0  0  1  0  0  0  0  0  0  0  0  0
    7.0568   -3.4243   -0.6858 C   0  0  1  0  0  0  0  0  0  0  0  0
    7.5329   -2.8300   -1.8683 O   0  0  0  0  0  0  0  0  0  0  0  0
    7.2396   -2.4992    0.5146 C   0  0  0  0  0  0  0  0  0  0  0  0
    6.0210   -2.7452    1.4647 C   0  0  1  0  0  0  0  0  0  0  0  0
    5.0837   -1.5089    1.5950 C   0  0  1  0  0  0  0  0  0  0  0  0
    5.7418   -0.2675    1.4822 O   0  0  0  0  0  0  0  0  0  0  0  0
    5.4324   -4.1390    1.0400 C   0  0  1  0  0  0  0  0  0  0  0  0
    6.5604   -5.1353    1.5242 C   0  0  0  0  0  0  0  0  0  0  0  0
    1.3311   -2.3269    4.2576 H   0  0  0  0  0  0  0  0  0  0  0  0
    0.1254   -3.6108    4.3293 H   0  0  0  0  0  0  0  0  0  0  0  0
    0.2545   -2.6454    2.8876 H   0  0  0  0  0  0  0  0  0  0  0  0
    1.2984   -4.7066    2.4081 H   0  0  0  0  0  0  0  0  0  0  0  0
    2.2587   -4.4894    5.2300 H   0  0  0  0  0  0  0  0  0  0  0  0
    1.4956   -5.8105    4.4216 H   0  0  0  0  0  0  0  0  0  0  0  0
    4.3637   -5.0861    4.6407 H   0  0  0  0  0  0  0  0  0  0  0  0
    3.6392   -6.6624    4.6896 H   0  0  0  0  0  0  0  0  0  0  0  0
    5.0413   -6.4061    2.7947 H   0  0  0  0  0  0  0  0  0  0  0  0
    3.6599   -8.7222    0.5505 H   0  0  0  0  0  0  0  0  0  0  0  0
    4.4411   -8.7736    2.1212 H   0  0  0  0  0  0  0  0  0  0  0  0
    5.1181   -7.8133    0.8195 H   0  0  0  0  0  0  0  0  0  0  0  0
    1.6227   -8.2357    1.4848 H   0  0  0  0  0  0  0  0  0  0  0  0
    1.2338   -6.7866    2.3512 H   0  0  0  0  0  0  0  0  0  0  0  0
    2.1289   -8.0584    3.1608 H   0  0  0  0  0  0  0  0  0  0  0  0
    3.8148   -6.0001   -0.1307 H   0  0  0  0  0  0  0  0  0  0  0  0
    2.2508   -5.4553    0.5354 H   0  0  0  0  0  0  0  0  0  0  0  0
    3.6842   -3.1139    3.1433 H   0  0  0  0  0  0  0  0  0  0  0  0
    2.0794   -2.8594    0.5589 H   0  0  0  0  0  0  0  0  0  0  0  0
    1.9404   -1.8144    1.8916 H   0  0  0  0  0  0  0  0  0  0  0  0
    3.3142   -0.4910    1.2461 H   0  0  0  0  0  0  0  0  0  0  0  0
    5.2990   -0.0746   -1.3869 H   0  0  0  0  0  0  0  0  0  0  0  0
    4.2282   -2.2783   -4.7129 H   0  0  0  0  0  0  0  0  0  0  0  0
    2.7935   -3.0043   -3.9116 H   0  0  0  0  0  0  0  0  0  0  0  0
    5.7423   -3.3454   -3.3352 H   0  0  0  0  0  0  0  0  0  0  0  0
    4.5490   -4.6074   -3.3001 H   0  0  0  0  0  0  0  0  0  0  0  0
    3.2338   -4.7296   -1.7155 H   0  0  0  0  0  0  0  0  0  0  0  0
    5.6328   -4.9992   -0.9518 H   0  0  0  0  0  0  0  0  0  0  0  0
    7.7618   -4.2467   -0.6080 H   0  0  0  0  0  0  0  0  0  0  0  0
    8.4429   -3.0497   -1.9957 H   0  0  0  0  0  0  0  0  0  0  0  0
    8.1765   -2.7663    0.9998 H   0  0  0  0  0  0  0  0  0  0  0  0
    7.3773   -1.4701    0.2069 H   0  0  0  0  0  0  0  0  0  0  0  0
    6.4228   -2.8599    2.4679 H   0  0  0  0  0  0  0  0  0  0  0  0
    4.8455   -1.4691    2.6599 H   0  0  0  0  0  0  0  0  0  0  0  0
    6.5511   -0.3030    1.9599 H   0  0  0  0  0  0  0  0  0  0  0  0
    7.5928   -4.9149    1.2785 H   0  0  0  0  0  0  0  0  0  0  0  0
    6.4047   -6.1445    1.1453 H   0  0  0  0  0  0  0  0  0  0  0  0
    6.6240   -5.1507    2.6131 H   0  0  0  0  0  0  0  0  0  0  0  0
  1  2  1  0
  1 32  1  0
  1 33  1  0
  1 34  1  0
  2 11  1  0
  2  3  1  0
  2 35  1  6
  3  4  1  0
  3 36  1  0
  3 37  1  0
  4  5  1  0
  4 38  1  0
  4 39  1  0
  5 10  1  0
  5  6  1  0
  5 40  1  1
  6  7  1  0
  6  8  1  0
  6  9  1  0
  7 41  1  0
  7 42  1  0
  7 43  1  0
  8 44  1  0
  8 45  1  0
  8 46  1  0
 10  9  1  6
  9 47  1  0
  9 48  1  0
 10 30  1  0
 10 11  1  0
 11 12  1  0
 11 49  1  1
 12 13  1  0
 12 50  1  0
 12 51  1  0
 13 28  1  0
 13 14  1  0
 13 52  1  1
 14 15  1  0
 15 21  1  0
 15 16  1  6
 15 17  1  0
 16 53  1  0
 17 19  1  0
 17 18  2  0
 19 20  1  0
 19 55  1  0
 19 54  1  0
 20 21  1  0
 20 56  1  0
 20 57  1  0
 21 22  1  1
 21 23  1  0
 22 58  1  0
 23 30  1  0
 23 24  1  0
 23 59  1  6
 24 25  1  0
 24 26  1  0
 24 60  1  1
 25 61  1  0
 26 27  1  0
 26 62  1  0
 26 63  1  0
 27 28  1  0
 27 30  1  0
 27 64  1  1
 28 29  1  0
 28 65  1  1
 29 66  1  0
 30 31  1  1
 31 67  1  0
 31 68  1  0
 31 69  1  0
M  END
>  <i_m_ct_stereo_status>  (67) 
1

>  <s_m_source_file>  (67) 
/var/tmp/pbs.5076255.sched01/tmp98udq4tg/0t315e5yz.sdf

>  <i_m_source_file_index>  (67) 
27

>  <i_lp_mmshare_version>  (67) 
48012

>  <i_f3d_flags>  (67) 
0

>  <s_epik_input>  (67) 
W0NIM11DKFtDSDNdKShbQ0gyXTEpW0NAQEhdKFtDQEBdMTIzKVtDSDJdW0NIMl1bQ0BASF0oW0NIM10pW0NAQEhdMltDSDJdW0NAQEhdNE9bQ0BAXTUoW09IXSlbQ0BAXShbT0hdKShbQ0gyXVtDSF09QzVbT0hdKVtDQEBIXTZbQ0BAXTMoW0NIM10pW0NASF0oW0NASF00W09IXSlbQ0gyXVtDQEBIXTZbT0hd

>  <s_epik_cmdline>  (67) 
J2VwaWtfcHl0aG9uJywgJy1waHQnLCAnMi4wJywgJy1waCcsICc3LjAnLCAnLXRuJywgJzgnLCAnLW1hJywgJzIwMCcsICctaW1hZScsICc8aW5maWxlLm1hZT4nLCAnLW9tYWUnLCAnPG91dGZpbGUubWFlPic=

>  <r_lp_tautomer_probability>  (67) 
1

>  <r_epik_Ionization_Penalty>  (67) 
1.50055e-06

>  <r_epik_Ionization_Penalty_Charging>  (67) 
0

>  <r_epik_Ionization_Penalty_Neutral>  (67) 
1.50055e-06

>  <r_epik_State_Penalty>  (67) 
-0

>  <r_epik_Charging_Adjusted_Penalty>  (67) 
0

>  <i_epik_Tot_Q>  (67) 
0

>  <i_epik_Tot_abs_Q>  (67) 
0

>  <s_lp_Force_Field>  (67) 
OPLS3e

>  <r_lp_Energy>  (67) 
130.249

>  <b_lp_Chiralities_Consistent>  (67) 
1

>  <s_lp_Variant>  (67) 
20:0-1

>  <s_i_glide_gridfile>  (67) 
pfpi4k_grid

>  <i_i_glide_lignum>  (67) 
27

>  <i_i_glide_rotatable_bonds>  (67) 
4

>  <r_i_docking_score>  (67) 
-4.0268

>  <r_i_glide_ligand_efficiency>  (67) 
-0.129897

>  <r_i_glide_ligand_efficiency_sa>  (67) 
-0.408056

>  <r_i_glide_ligand_efficiency_ln>  (67) 
-0.908168

>  <r_i_glide_gscore>  (67) 
-4.0268

>  <r_i_glide_lipo>  (67) 
-0.9652

>  <r_i_glide_hbond>  (67) 
0

>  <r_i_glide_metal>  (67) 
-0

>  <r_i_glide_rewards>  (67) 
-0.446143

>  <r_i_glide_evdw>  (67) 
-25.5952

>  <r_i_glide_ecoul>  (67) 
-8.48001

>  <r_i_glide_erotb>  (67) 
0

>  <r_i_glide_esite>  (67) 
-0.0637014

>  <r_i_glide_emodel>  (67) 
-39.842

>  <r_i_glide_energy>  (67) 
-34.0752

>  <r_i_glide_einternal>  (67) 
3.54746

>  <r_i_glide_intrahb_reward>  (67) 
-0

>  <i_i_glide_confnum>  (67) 
1

>  <i_i_glide_posenum>  (67) 
40

>  <r_i_glide_eff_state_penalty>  (67) 
0

>  <ligand_id>  (67) 
20

>  <original_smiles>  (67) 
CC1CCC2C(C)(C)CC23C1CC1OC2(O)C(O)=CCC2(O)C2C(O)CC(C1O)C23C

>  <smiles>  (67) 
[H]OC12OC3([H])C([H])([H])C4([H])C([H])(C([H])([H])[H])C([H])([H])C([H])([H])C5([H])C(C([H])([H])[H])(C([H])([H])[H])C([H])([H])C45C4(C([H])([H])[H])C([H])(C([H])([H])C([H])(O[H])C4([H])C1(O[H])C([H])([H])C([H])([H])C2=O)C3([H])O[H]

$$$$
21:0:0
     RDKit          3D

 69 74  0  0  1  0  0  0  0  0999 V2000
    1.7509   -1.8641    6.6645 C   0  0  0  0  0  0  0  0  0  0  0  0
    1.3310   -0.5322    6.9444 O   0  0  0  0  0  0  0  0  0  0  0  0
    0.8414    0.2387    5.8411 C   0  0  2  0  0  0  0  0  0  0  0  0
    1.9726    1.0950    5.1709 C   0  0  0  0  0  0  0  0  0  0  0  0
    3.3035    0.4072    4.9452 C   0  0  0  0  0  0  0  0  0  0  0  0
    1.8093    2.3697    4.7076 C   0  0  0  0  0  0  0  0  0  0  0  0
    0.4948    3.1294    4.8034 C   0  0  0  0  0  0  0  0  0  0  0  0
   -0.6887    2.3567    4.1975 C   0  0  1  0  0  0  0  0  0  0  0  0
   -0.3622    1.3243    3.0735 C   0  0  0  0  0  0  0  0  0  0  0  0
   -1.3157    1.6537    5.3193 O   0  0  0  0  0  0  0  0  0  0  0  0
   -0.5143    0.9129    6.3205 C   0  0  2  0  0  0  0  0  0  0  0  0
   -0.4403    1.6447    7.7206 C   0  0  0  0  0  0  0  0  0  0  0  0
   -0.9724    1.0858    8.6757 O   0  0  0  0  0  0  0  0  0  0  0  0
    0.2356    2.9835    7.8748 C   0  0  0  0  0  0  0  0  0  0  0  0
    1.6178    2.9893    7.9127 C   0  0  0  0  0  0  0  0  0  0  0  0
    2.3836    1.8336    8.5574 C   0  0  0  0  0  0  0  0  0  0  0  0
    2.5895    3.9558    7.1995 C   0  0  0  0  0  0  0  0  0  0  0  0
    3.7840    3.6482    7.1913 O   0  0  0  0  0  0  0  0  0  0  0  0
    2.2714    5.3050    6.4390 C   0  0  1  0  0  0  0  0  0  0  0  0
    3.1201    6.3550    7.2349 C   0  0  0  0  0  0  0  0  0  0  0  0
    2.6072    5.5098    4.8551 C   0  0  1  0  0  0  0  0  0  0  0  0
    3.8280    4.9176    4.4789 O   0  0  0  0  0  0  0  0  0  0  0  0
    1.4831    5.5215    3.6593 C   0  0  1  0  0  0  0  0  0  0  0  0
    1.8393    4.6131    2.6292 O   0  0  0  0  0  0  0  0  0  0  0  0
   -0.0215    5.3480    4.1181 C   0  0  1  0  0  0  0  0  0  0  0  0
   -1.1157    4.6832    3.2810 C   0  0  0  0  0  0  0  0  0  0  0  0
   -1.5585    3.4099    3.4668 C   0  0  0  0  0  0  0  0  0  0  0  0
   -2.8643    2.9419    2.8564 C   0  0  0  0  0  0  0  0  0  0  0  0
    0.1026    4.5902    5.4036 C   0  0  1  0  0  0  0  0  0  0  0  0
   -1.0650    4.3066    6.1765 O   0  0  0  0  0  0  0  0  0  0  0  0
   -0.7164    4.1681    7.5684 C   0  0  1  0  0  0  0  0  0  0  0  0
   -2.0585    4.0504    8.3476 C   0  0  0  0  0  0  0  0  0  0  0  0
    0.0373    5.4643    7.8065 C   0  0  2  0  0  0  0  0  0  0  0  0
   -1.0796    6.8420    8.1466 Cl  0  0  0  0  0  0  0  0  0  0  0  0
    0.7897    5.5781    6.4612 C   0  0  1  0  0  0  0  0  0  0  0  0
    0.6701    6.9803    6.1449 O   0  0  0  0  0  0  0  0  0  0  0  0
    2.2070   -2.2915    7.5592 H   0  0  0  0  0  0  0  0  0  0  0  0
    2.4930   -1.9347    5.8742 H   0  0  0  0  0  0  0  0  0  0  0  0
    0.9002   -2.4837    6.3825 H   0  0  0  0  0  0  0  0  0  0  0  0
    0.5316   -0.4890    5.0910 H   0  0  0  0  0  0  0  0  0  0  0  0
    3.1497   -0.4838    4.3446 H   0  0  0  0  0  0  0  0  0  0  0  0
    3.7627    0.1370    5.8928 H   0  0  0  0  0  0  0  0  0  0  0  0
    3.9983    1.0434    4.3988 H   0  0  0  0  0  0  0  0  0  0  0  0
    2.6095    2.8342    4.1685 H   0  0  0  0  0  0  0  0  0  0  0  0
    0.5970    2.7877    5.7297 H   0  0  0  0  0  0  0  0  0  0  0  0
   -0.0097    1.8298    2.1739 H   0  0  0  0  0  0  0  0  0  0  0  0
   -1.2526    0.7589    2.8054 H   0  0  0  0  0  0  0  0  0  0  0  0
    0.3838    0.5770    3.2946 H   0  0  0  0  0  0  0  0  0  0  0  0
   -1.1525    0.0610    6.5400 H   0  0  0  0  0  0  0  0  0  0  0  0
    3.0920    2.2260    9.2913 H   0  0  0  0  0  0  0  0  0  0  0  0
    2.9550    1.2658    7.8250 H   0  0  0  0  0  0  0  0  0  0  0  0
    1.7535    1.1331    9.1141 H   0  0  0  0  0  0  0  0  0  0  0  0
    2.9720    7.3917    6.9229 H   0  0  0  0  0  0  0  0  0  0  0  0
    4.1874    6.1626    7.0914 H   0  0  0  0  0  0  0  0  0  0  0  0
    2.9395    6.3054    8.3111 H   0  0  0  0  0  0  0  0  0  0  0  0
    2.9415    6.5452    4.8170 H   0  0  0  0  0  0  0  0  0  0  0  0
    3.6474    4.0414    4.1799 H   0  0  0  0  0  0  0  0  0  0  0  0
    1.5330    6.5064    3.1945 H   0  0  0  0  0  0  0  0  0  0  0  0
    1.1748    4.6140    1.9235 H   0  0  0  0  0  0  0  0  0  0  0  0
   -0.4631    6.3339    4.2574 H   0  0  0  0  0  0  0  0  0  0  0  0
   -1.6813    5.3553    2.6530 H   0  0  0  0  0  0  0  0  0  0  0  0
   -3.4570    2.4310    3.6123 H   0  0  0  0  0  0  0  0  0  0  0  0
   -2.6943    2.2600    2.0286 H   0  0  0  0  0  0  0  0  0  0  0  0
   -3.4459    3.7842    2.4836 H   0  0  0  0  0  0  0  0  0  0  0  0
   -1.9005    4.0688    9.4270 H   0  0  0  0  0  0  0  0  0  0  0  0
   -2.5927    3.1289    8.1155 H   0  0  0  0  0  0  0  0  0  0  0  0
   -2.7690    4.8399    8.0983 H   0  0  0  0  0  0  0  0  0  0  0  0
    0.6864    5.4301    8.6810 H   0  0  0  0  0  0  0  0  0  0  0  0
    1.1652    7.1848    5.3677 H   0  0  0  0  0  0  0  0  0  0  0  0
  1  2  1  0
  1 37  1  0
  1 38  1  0
  1 39  1  0
  2  3  1  0
  3 11  1  0
  3  4  1  0
  3 40  1  6
  4  5  1  0
  4  6  2  0
  5 41  1  0
  5 42  1  0
  5 43  1  0
  6  7  1  0
  6 44  1  0
  7 29  1  0
  7  8  1  0
  7 45  1  0
  8 27  1  0
  8  9  1  6
  8 10  1  0
  9 46  1  0
  9 47  1  0
  9 48  1  0
 10 11  1  0
 11 12  1  0
 11 49  1  1
 12 13  2  0
 12 14  1  0
 14 31  1  0
 14 15  2  0
 15 16  1  0
 15 17  1  0
 16 50  1  0
 16 51  1  0
 16 52  1  0
 17 18  2  0
 17 19  1  0
 19 35  1  0
 19 20  1  1
 19 21  1  0
 20 53  1  0
 20 54  1  0
 20 55  1  0
 21 22  1  0
 21 23  1  0
 21 56  1  1
 22 57  1  0
 23 24  1  0
 23 25  1  0
 23 58  1  6
 24 59  1  0
 25 26  1  0
 25 29  1  0
 25 60  1  1
 26 27  2  0
 26 61  1  0
 27 28  1  0
 28 62  1  0
 28 63  1  0
 28 64  1  0
 29 35  1  0
 29 30  1  1
 30 31  1  0
 31 32  1  1
 31 33  1  0
 32 65  1  0
 32 66  1  0
 32 67  1  0
 33 34  1  0
 33 35  1  0
 33 68  1  1
 35 36  1  6
 36 69  1  0
M  END
>  <i_m_ct_stereo_status>  (68) 
1

>  <s_m_source_file>  (68) 
/var/tmp/pbs.5076255.sched01/tmp98udq4tg/0t315e5yz.sdf

>  <i_m_source_file_index>  (68) 
28

>  <i_lp_mmshare_version>  (68) 
48012

>  <i_f3d_flags>  (68) 
0

>  <s_epik_input>  (68) 
W0NAXTEyM1tDSF00W0NAQF01KFtDSDNdKU9bQ0BASF0oW0NASF0oT1tDSDNdKUMoW0NIM10pPVtDSF00KUMoPU8pQz02W0NAQF0oTzIpKFtDSDNdKVtDQEhdKENsKVtDQEBdMyhbT0hdKVtDQEBdKFtDSDNdKShDKD1PKUM2W0NIM10pW0NAQEhdKFtPSF0pW0NAQEhdKFtPSF0pW0NAQEhdMVtDSF09QzVbQ0gzXQ==

>  <s_epik_cmdline>  (68) 
J2VwaWtfcHl0aG9uJywgJy1waHQnLCAnMi4wJywgJy1waCcsICc3LjAnLCAnLXRuJywgJzgnLCAnLW1hJywgJzIwMCcsICctaW1hZScsICc8aW5maWxlLm1hZT4nLCAnLW9tYWUnLCAnPG91dGZpbGUubWFlPic=

>  <r_epik_Ionization_Penalty>  (68) 
0.00290765

>  <r_epik_Ionization_Penalty_Charging>  (68) 
0

>  <r_epik_Ionization_Penalty_Neutral>  (68) 
0.00290765

>  <r_epik_State_Penalty>  (68) 
0.00201207

>  <r_epik_Charging_Adjusted_Penalty>  (68) 
0.00201207

>  <i_epik_Tot_Q>  (68) 
0

>  <i_epik_Tot_abs_Q>  (68) 
0

>  <s_lp_Force_Field>  (68) 
OPLS3e

>  <r_lp_Energy>  (68) 
198.546

>  <b_lp_Chiralities_Consistent>  (68) 
1

>  <s_lp_Variant>  (68) 
21:0-1

>  <s_i_glide_gridfile>  (68) 
pfpi4k_grid

>  <i_i_glide_lignum>  (68) 
28

>  <i_i_glide_rotatable_bonds>  (68) 
4

>  <r_i_docking_score>  (68) 
-2.12709

>  <r_i_glide_ligand_efficiency>  (68) 
-0.0590858

>  <r_i_glide_ligand_efficiency_sa>  (68) 
-0.195097

>  <r_i_glide_ligand_efficiency_ln>  (68) 
-0.464074

>  <r_i_glide_gscore>  (68) 
-2.12709

>  <r_i_glide_lipo>  (68) 
-0.00190605

>  <r_i_glide_hbond>  (68) 
0

>  <r_i_glide_metal>  (68) 
-0

>  <r_i_glide_rewards>  (68) 
0

>  <r_i_glide_evdw>  (68) 
-19.0336

>  <r_i_glide_ecoul>  (68) 
-7.73406

>  <r_i_glide_erotb>  (68) 
0

>  <r_i_glide_esite>  (68) 
-0.0133931

>  <r_i_glide_emodel>  (68) 
-29.7572

>  <r_i_glide_energy>  (68) 
-26.7677

>  <r_i_glide_einternal>  (68) 
1.17289

>  <r_i_glide_intrahb_reward>  (68) 
-0

>  <i_i_glide_confnum>  (68) 
1

>  <i_i_glide_posenum>  (68) 
26

>  <r_i_glide_eff_state_penalty>  (68) 
0

>  <ligand_id>  (68) 
21

>  <original_smiles>  (68) 
COC1C(C)=CC2C3(C)OC1C(=O)C1=C(C)C(=O)C4(C)C(O)C(O)C(C=C3C)C23OC1(C)C(Cl)C43O

>  <smiles>  (68) 
[H]OC1([H])C([H])(O[H])C2(C([H])([H])[H])C(=O)C(C([H])([H])[H])=C3C(=O)C4([H])OC5(C([H])([H])[H])C(C([H])([H])[H])=C([H])C1([H])C1(OC3(C([H])([H])[H])C([H])(Cl)C12O[H])C5([H])C([H])=C(C([H])([H])[H])C4([H])OC([H])([H])[H]

$$$$
21:0:1
     RDKit          3D

 69 74  0  0  1  0  0  0  0  0999 V2000
    6.5371   -8.4017    2.0365 C   0  0  0  0  0  0  0  0  0  0  0  0
    6.4698   -7.0469    2.4577 O   0  0  0  0  0  0  0  0  0  0  0  0
    6.0062   -6.1034    1.4936 C   0  0  2  0  0  0  0  0  0  0  0  0
    6.7075   -4.7321    1.7502 C   0  0  0  0  0  0  0  0  0  0  0  0
    8.2009   -4.8452    2.0428 C   0  0  0  0  0  0  0  0  0  0  0  0
    6.1133   -3.5114    1.6701 C   0  0  0  0  0  0  0  0  0  0  0  0
    4.6558   -3.3210    1.2618 C   0  0  0  0  0  0  0  0  0  0  0  0
    4.3081   -4.0358   -0.0596 C   0  0  1  0  0  0  0  0  0  0  0  0
    5.4622   -4.2583   -1.0757 C   0  0  0  0  0  0  0  0  0  0  0  0
    3.7595   -5.3394    0.3387 O   0  0  0  0  0  0  0  0  0  0  0  0
    4.4254   -6.2032    1.3522 C   0  0  2  0  0  0  0  0  0  0  0  0
    3.6619   -6.2445    2.7348 C   0  0  0  0  0  0  0  0  0  0  0  0
    3.2005   -7.3262    3.1083 O   0  0  0  0  0  0  0  0  0  0  0  0
    3.4835   -4.9999    3.5589 C   0  0  0  0  0  0  0  0  0  0  0  0
    4.5593   -4.5718    4.3087 C   0  0  0  0  0  0  0  0  0  0  0  0
    5.5155   -5.5975    4.9221 C   0  0  0  0  0  0  0  0  0  0  0  0
    5.0298   -3.1330    4.5877 C   0  0  0  0  0  0  0  0  0  0  0  0
    5.9772   -3.0188    5.3460 O   0  0  0  0  0  0  0  0  0  0  0  0
    4.4188   -1.7382    4.0957 C   0  0  1  0  0  0  0  0  0  0  0  0
    4.3094   -0.9858    5.4676 C   0  0  0  0  0  0  0  0  0  0  0  0
    5.1057   -0.6881    3.0280 C   0  0  1  0  0  0  0  0  0  0  0  0
    6.4818   -0.5679    3.1164 O   0  0  0  0  0  0  0  0  0  0  0  0
    4.6291   -0.4940    1.4871 C   0  0  1  0  0  0  0  0  0  0  0  0
    5.6984   -0.5671    0.5552 O   0  0  0  0  0  0  0  0  0  0  0  0
    3.3904   -1.3284    1.0171 C   0  0  1  0  0  0  0  0  0  0  0  0
    3.2228   -1.8022   -0.4160 C   0  0  0  0  0  0  0  0  0  0  0  0
    3.3939   -3.0653   -0.8321 C   0  0  0  0  0  0  0  0  0  0  0  0
    2.7363   -3.5305   -2.1080 C   0  0  0  0  0  0  0  0  0  0  0  0
    3.4084   -2.5206    1.9280 C   0  0  1  0  0  0  0  0  0  0  0  0
    2.3599   -3.4959    1.8864 O   0  0  0  0  0  0  0  0  0  0  0  0
    2.2325   -4.1807    3.1502 C   0  0  1  0  0  0  0  0  0  0  0  0
    1.0081   -5.1039    3.0715 C   0  0  0  0  0  0  0  0  0  0  0  0
    2.0994   -2.9778    4.0771 C   0  0  2  0  0  0  0  0  0  0  0  0
    0.4053   -2.3528    4.0985 Cl  0  0  0  0  0  0  0  0  0  0  0  0
    3.0987   -1.9949    3.4110 C   0  0  1  0  0  0  0  0  0  0  0  0
    2.4369   -0.7198    3.4772 O   0  0  0  0  0  0  0  0  0  0  0  0
    6.9362   -9.0081    2.8498 H   0  0  0  0  0  0  0  0  0  0  0  0
    7.2031   -8.5229    1.1823 H   0  0  0  0  0  0  0  0  0  0  0  0
    5.5549   -8.7998    1.7835 H   0  0  0  0  0  0  0  0  0  0  0  0
    6.4250   -6.4398    0.5485 H   0  0  0  0  0  0  0  0  0  0  0  0
    8.7087   -5.4264    1.2716 H   0  0  0  0  0  0  0  0  0  0  0  0
    8.3756   -5.3233    3.0099 H   0  0  0  0  0  0  0  0  0  0  0  0
    8.6779   -3.8770    2.0668 H   0  0  0  0  0  0  0  0  0  0  0  0
    6.7017   -2.6186    1.8000 H   0  0  0  0  0  0  0  0  0  0  0  0
    4.5782   -4.0208    1.9582 H   0  0  0  0  0  0  0  0  0  0  0  0
    5.8123   -3.3150   -1.4950 H   0  0  0  0  0  0  0  0  0  0  0  0
    5.1267   -4.8803   -1.9068 H   0  0  0  0  0  0  0  0  0  0  0  0
    6.3510   -4.7346   -0.6988 H   0  0  0  0  0  0  0  0  0  0  0  0
    4.2438   -7.1969    0.9427 H   0  0  0  0  0  0  0  0  0  0  0  0
    5.6076   -5.3962    5.9888 H   0  0  0  0  0  0  0  0  0  0  0  0
    6.5046   -5.5262    4.4813 H   0  0  0  0  0  0  0  0  0  0  0  0
    5.1638   -6.6273    4.8538 H   0  0  0  0  0  0  0  0  0  0  0  0
    3.7822   -0.0384    5.4286 H   0  0  0  0  0  0  0  0  0  0  0  0
    5.3030   -0.7445    5.8553 H   0  0  0  0  0  0  0  0  0  0  0  0
    3.8268   -1.5962    6.2337 H   0  0  0  0  0  0  0  0  0  0  0  0
    4.8606    0.2912    3.4467 H   0  0  0  0  0  0  0  0  0  0  0  0
    6.8239    0.1297    2.5617 H   0  0  0  0  0  0  0  0  0  0  0  0
    4.3293    0.5489    1.3999 H   0  0  0  0  0  0  0  0  0  0  0  0
    5.4585   -0.0288   -0.1846 H   0  0  0  0  0  0  0  0  0  0  0  0
    2.4885   -0.7402    1.1531 H   0  0  0  0  0  0  0  0  0  0  0  0
    2.6481   -1.1607   -1.0477 H   0  0  0  0  0  0  0  0  0  0  0  0
    2.1376   -4.3975   -1.8544 H   0  0  0  0  0  0  0  0  0  0  0  0
    3.4618   -3.7410   -2.8933 H   0  0  0  0  0  0  0  0  0  0  0  0
    2.0030   -2.8312   -2.4957 H   0  0  0  0  0  0  0  0  0  0  0  0
    0.7089   -5.5245    4.0240 H   0  0  0  0  0  0  0  0  0  0  0  0
    1.0959   -5.9023    2.3430 H   0  0  0  0  0  0  0  0  0  0  0  0
    0.2149   -4.4967    2.7052 H   0  0  0  0  0  0  0  0  0  0  0  0
    2.3205   -3.2090    5.1212 H   0  0  0  0  0  0  0  0  0  0  0  0
    1.6214   -0.7708    3.0028 H   0  0  0  0  0  0  0  0  0  0  0  0
  1  2  1  0
  1 37  1  0
  1 38  1  0
  1 39  1  0
  2  3  1  0
  3 11  1  0
  3  4  1  0
  3 40  1  6
  4  5  1  0
  4  6  2  0
  5 41  1  0
  5 42  1  0
  5 43  1  0
  6  7  1  0
  6 44  1  0
  7 29  1  0
  7  8  1  0
  7 45  1  0
  8 27  1  0
  8  9  1  6
  8 10  1  0
  9 46  1  0
  9 47  1  0
  9 48  1  0
 10 11  1  0
 11 12  1  0
 11 49  1  6
 12 13  2  0
 12 14  1  0
 14 31  1  0
 14 15  2  0
 15 16  1  0
 15 17  1  0
 16 50  1  0
 16 51  1  0
 16 52  1  0
 17 18  2  0
 17 19  1  0
 19 35  1  0
 19 20  1  1
 19 21  1  0
 20 53  1  0
 20 54  1  0
 20 55  1  0
 21 22  1  0
 21 23  1  0
 21 56  1  1
 22 57  1  0
 23 24  1  0
 23 25  1  0
 23 58  1  1
 24 59  1  0
 25 26  1  0
 25 29  1  0
 25 60  1  1
 26 27  2  0
 26 61  1  0
 27 28  1  0
 28 62  1  0
 28 63  1  0
 28 64  1  0
 29 35  1  0
 29 30  1  6
 30 31  1  0
 31 32  1  6
 31 33  1  0
 32 65  1  0
 32 66  1  0
 32 67  1  0
 33 34  1  0
 33 35  1  0
 33 68  1  1
 35 36  1  6
 36 69  1  0
M  END
>  <i_m_ct_stereo_status>  (69) 
1

>  <s_m_source_file>  (69) 
/var/tmp/pbs.5076255.sched01/tmp98udq4tg/0t315e5yz.sdf

>  <i_m_source_file_index>  (69) 
28

>  <i_lp_mmshare_version>  (69) 
48012

>  <i_f3d_flags>  (69) 
0

>  <s_epik_input>  (69) 
W0NAXTEyM1tDSF00W0NAQF01KFtDSDNdKU9bQ0BASF0oW0NASF0oT1tDSDNdKUMoW0NIM10pPVtDSF00KUMoPU8pQz02W0NAQF0oTzIpKFtDSDNdKVtDQEhdKENsKVtDQEBdMyhbT0hdKVtDQEBdKFtDSDNdKShDKD1PKUM2W0NIM10pW0NAQEhdKFtPSF0pW0NAQEhdKFtPSF0pW0NAQEhdMVtDSF09QzVbQ0gzXQ==

>  <s_epik_cmdline>  (69) 
J2VwaWtfcHl0aG9uJywgJy1waHQnLCAnMi4wJywgJy1waCcsICc3LjAnLCAnLXRuJywgJzgnLCAnLW1hJywgJzIwMCcsICctaW1hZScsICc8aW5maWxlLm1hZT4nLCAnLW9tYWUnLCAnPG91dGZpbGUubWFlPic=

>  <r_epik_Ionization_Penalty>  (69) 
0.00290765

>  <r_epik_Ionization_Penalty_Charging>  (69) 
0

>  <r_epik_Ionization_Penalty_Neutral>  (69) 
0.00290765

>  <r_epik_State_Penalty>  (69) 
0.00201207

>  <r_epik_Charging_Adjusted_Penalty>  (69) 
0.00201207

>  <i_epik_Tot_Q>  (69) 
0

>  <i_epik_Tot_abs_Q>  (69) 
0

>  <s_lp_Force_Field>  (69) 
OPLS3e

>  <r_lp_Energy>  (69) 
198.546

>  <b_lp_Chiralities_Consistent>  (69) 
1

>  <s_lp_Variant>  (69) 
21:0-1

>  <s_i_glide_gridfile>  (69) 
pfpi4k_grid

>  <i_i_glide_lignum>  (69) 
28

>  <i_i_glide_rotatable_bonds>  (69) 
4

>  <r_i_docking_score>  (69) 
-1.40315

>  <r_i_glide_ligand_efficiency>  (69) 
-0.0389765

>  <r_i_glide_ligand_efficiency_sa>  (69) 
-0.128698

>  <r_i_glide_ligand_efficiency_ln>  (69) 
-0.30613

>  <r_i_glide_gscore>  (69) 
-1.40315

>  <r_i_glide_lipo>  (69) 
-0.838468

>  <r_i_glide_hbond>  (69) 
0

>  <r_i_glide_metal>  (69) 
-0

>  <r_i_glide_rewards>  (69) 
-0.0448441

>  <r_i_glide_evdw>  (69) 
1.256

>  <r_i_glide_ecoul>  (69) 
-3.88427

>  <r_i_glide_erotb>  (69) 
0

>  <r_i_glide_esite>  (69) 
0

>  <r_i_glide_emodel>  (69) 
-2.60667

>  <r_i_glide_energy>  (69) 
-2.62828

>  <r_i_glide_einternal>  (69) 
1.09179

>  <r_i_glide_intrahb_reward>  (69) 
-0

>  <i_i_glide_confnum>  (69) 
2

>  <i_i_glide_posenum>  (69) 
1

>  <r_i_glide_eff_state_penalty>  (69) 
0

>  <ligand_id>  (69) 
21

>  <original_smiles>  (69) 
COC1C(C)=CC2C3(C)OC1C(=O)C1=C(C)C(=O)C4(C)C(O)C(O)C(C=C3C)C23OC1(C)C(Cl)C43O

>  <smiles>  (69) 
[H]OC1([H])C([H])(O[H])C2(C([H])([H])[H])C(=O)C(C([H])([H])[H])=C3C(=O)C4([H])OC5(C([H])([H])[H])C(C([H])([H])[H])=C([H])C1([H])C1(OC3(C([H])([H])[H])C([H])(Cl)C12O[H])C5([H])C([H])=C(C([H])([H])[H])C4([H])OC([H])([H])[H]

$$$$
21:0:2
     RDKit          3D

 69 74  0  0  1  0  0  0  0  0999 V2000
    5.4386   -8.3700    2.8931 C   0  0  0  0  0  0  0  0  0  0  0  0
    5.7859   -7.0012    3.0380 O   0  0  0  0  0  0  0  0  0  0  0  0
    5.4405   -6.1386    1.9548 C   0  0  2  0  0  0  0  0  0  0  0  0
    6.3604   -4.8687    2.0067 C   0  0  0  0  0  0  0  0  0  0  0  0
    7.8306   -5.1439    2.2753 C   0  0  0  0  0  0  0  0  0  0  0  0
    5.9437   -3.5935    1.7657 C   0  0  0  0  0  0  0  0  0  0  0  0
    4.5142   -3.2489    1.3442 C   0  0  0  0  0  0  0  0  0  0  0  0
    4.0397   -4.0793    0.1325 C   0  0  1  0  0  0  0  0  0  0  0  0
    5.1239   -4.6139   -0.8436 C   0  0  0  0  0  0  0  0  0  0  0  0
    3.3043   -5.2007    0.7026 O   0  0  0  0  0  0  0  0  0  0  0  0
    3.8497   -6.0072    1.8244 C   0  0  2  0  0  0  0  0  0  0  0  0
    3.1107   -5.7519    3.2085 C   0  0  0  0  0  0  0  0  0  0  0  0
    2.5113   -6.6870    3.7310 O   0  0  0  0  0  0  0  0  0  0  0  0
    3.1717   -4.3829    3.8503 C   0  0  0  0  0  0  0  0  0  0  0  0
    4.3205   -4.0441    4.5312 C   0  0  0  0  0  0  0  0  0  0  0  0
    5.1195   -5.1209    5.2673 C   0  0  0  0  0  0  0  0  0  0  0  0
    4.9796   -2.6514    4.6278 C   0  0  0  0  0  0  0  0  0  0  0  0
    5.9150   -2.5641    5.4154 O   0  0  0  0  0  0  0  0  0  0  0  0
    4.5592   -1.2719    3.9334 C   0  0  1  0  0  0  0  0  0  0  0  0
    4.6357   -0.3189    5.1772 C   0  0  0  0  0  0  0  0  0  0  0  0
    5.3262   -0.4934    2.7336 C   0  0  1  0  0  0  0  0  0  0  0  0
    6.6995   -0.6592    2.8611 O   0  0  0  0  0  0  0  0  0  0  0  0
    4.9096   -0.4404    1.1631 C   0  0  1  0  0  0  0  0  0  0  0  0
    5.9504   -0.8201    0.2652 O   0  0  0  0  0  0  0  0  0  0  0  0
    3.5500   -1.1364    0.8308 C   0  0  1  0  0  0  0  0  0  0  0  0
    3.2541   -1.7789   -0.5290 C   0  0  0  0  0  0  0  0  0  0  0  0
    3.2302   -3.1088   -0.7507 C   0  0  0  0  0  0  0  0  0  0  0  0
    2.4805   -3.6521   -1.9508 C   0  0  0  0  0  0  0  0  0  0  0  0
    3.4069   -2.1873    1.8988 C   0  0  1  0  0  0  0  0  0  0  0  0
    2.2191   -2.9762    1.9868 O   0  0  0  0  0  0  0  0  0  0  0  0
    2.0483   -3.4426    3.3457 C   0  0  1  0  0  0  0  0  0  0  0  0
    0.6815   -4.1272    3.4357 C   0  0  0  0  0  0  0  0  0  0  0  0
    2.1058   -2.1194    4.1028 C   0  0  2  0  0  0  0  0  0  0  0  0
    0.5320   -1.2118    4.0852 Cl  0  0  0  0  0  0  0  0  0  0  0  0
    3.2212   -1.4135    3.2969 C   0  0  1  0  0  0  0  0  0  0  0  0
    2.7518   -0.0532    3.1910 O   0  0  0  0  0  0  0  0  0  0  0  0
    5.7906   -8.9168    3.7676 H   0  0  0  0  0  0  0  0  0  0  0  0
    5.9004   -8.8149    2.0123 H   0  0  0  0  0  0  0  0  0  0  0  0
    4.3622   -8.5197    2.8401 H   0  0  0  0  0  0  0  0  0  0  0  0
    5.7750   -6.6715    1.0662 H   0  0  0  0  0  0  0  0  0  0  0  0
    8.1939   -5.9232    1.6164 H   0  0  0  0  0  0  0  0  0  0  0  0
    7.9546   -5.4809    3.3018 H   0  0  0  0  0  0  0  0  0  0  0  0
    8.4316   -4.2585    2.0986 H   0  0  0  0  0  0  0  0  0  0  0  0
    6.6767   -2.8015    1.7645 H   0  0  0  0  0  0  0  0  0  0  0  0
    4.3491   -3.8107    2.1400 H   0  0  0  0  0  0  0  0  0  0  0  0
    5.5902   -3.7979   -1.3961 H   0  0  0  0  0  0  0  0  0  0  0  0
    4.6672   -5.2812   -1.5676 H   0  0  0  0  0  0  0  0  0  0  0  0
    5.9335   -5.1829   -0.4161 H   0  0  0  0  0  0  0  0  0  0  0  0
    3.5104   -7.0124    1.5616 H   0  0  0  0  0  0  0  0  0  0  0  0
    5.2688   -4.8078    6.2936 H   0  0  0  0  0  0  0  0  0  0  0  0
    6.0960   -5.2433    4.8194 H   0  0  0  0  0  0  0  0  0  0  0  0
    4.6246   -6.0923    5.3524 H   0  0  0  0  0  0  0  0  0  0  0  0
    4.2592    0.6806    5.0006 H   0  0  0  0  0  0  0  0  0  0  0  0
    5.6710   -0.1836    5.5045 H   0  0  0  0  0  0  0  0  0  0  0  0
    4.0894   -0.7307    6.0318 H   0  0  0  0  0  0  0  0  0  0  0  0
    5.3079    0.5423    3.0031 H   0  0  0  0  0  0  0  0  0  0  0  0
    7.1317    0.0211    2.2944 H   0  0  0  0  0  0  0  0  0  0  0  0
    4.7670    0.6058    0.8987 H   0  0  0  0  0  0  0  0  0  0  0  0
    6.2448   -1.6855    0.4910 H   0  0  0  0  0  0  0  0  0  0  0  0
    2.7412   -0.4037    0.8871 H   0  0  0  0  0  0  0  0  0  0  0  0
    2.7300   -1.1374   -1.2378 H   0  0  0  0  0  0  0  0  0  0  0  0
    1.8543   -4.4950   -1.6528 H   0  0  0  0  0  0  0  0  0  0  0  0
    3.1855   -3.9211   -2.7331 H   0  0  0  0  0  0  0  0  0  0  0  0
    1.8130   -2.9130   -2.3929 H   0  0  0  0  0  0  0  0  0  0  0  0
    0.3911   -4.4051    4.4403 H   0  0  0  0  0  0  0  0  0  0  0  0
    0.6063   -4.9822    2.7813 H   0  0  0  0  0  0  0  0  0  0  0  0
   -0.0271   -3.4320    3.0663 H   0  0  0  0  0  0  0  0  0  0  0  0
    2.3420   -2.2415    5.1588 H   0  0  0  0  0  0  0  0  0  0  0  0
    3.4191    0.4909    2.7970 H   0  0  0  0  0  0  0  0  0  0  0  0
  1  2  1  0
  1 37  1  0
  1 38  1  0
  1 39  1  0
  2  3  1  0
  3 11  1  0
  3  4  1  0
  3 40  1  6
  4  5  1  0
  4  6  2  0
  5 41  1  0
  5 42  1  0
  5 43  1  0
  6  7  1  0
  6 44  1  0
  7 29  1  0
  7  8  1  0
  7 45  1  0
  8 27  1  0
  8  9  1  6
  8 10  1  0
  9 46  1  0
  9 47  1  0
  9 48  1  0
 10 11  1  0
 11 12  1  0
 11 49  1  6
 12 13  2  0
 12 14  1  0
 14 31  1  0
 14 15  2  0
 15 16  1  0
 15 17  1  0
 16 50  1  0
 16 51  1  0
 16 52  1  0
 17 18  2  0
 17 19  1  0
 19 35  1  0
 19 20  1  1
 19 21  1  0
 20 53  1  0
 20 54  1  0
 20 55  1  0
 21 22  1  0
 21 23  1  0
 21 56  1  1
 22 57  1  0
 23 24  1  0
 23 25  1  0
 23 58  1  6
 24 59  1  0
 25 26  1  0
 25 29  1  0
 25 60  1  1
 26 27  2  0
 26 61  1  0
 27 28  1  0
 28 62  1  0
 28 63  1  0
 28 64  1  0
 29 35  1  0
 29 30  1  6
 30 31  1  0
 31 32  1  6
 31 33  1  0
 32 65  1  0
 32 66  1  0
 32 67  1  0
 33 34  1  0
 33 35  1  0
 33 68  1  1
 35 36  1  6
 36 69  1  0
M  END
>  <i_m_ct_stereo_status>  (70) 
1

>  <s_m_source_file>  (70) 
/var/tmp/pbs.5076255.sched01/tmp98udq4tg/0t315e5yz.sdf

>  <i_m_source_file_index>  (70) 
28

>  <i_lp_mmshare_version>  (70) 
48012

>  <i_f3d_flags>  (70) 
0

>  <s_epik_input>  (70) 
W0NAXTEyM1tDSF00W0NAQF01KFtDSDNdKU9bQ0BASF0oW0NASF0oT1tDSDNdKUMoW0NIM10pPVtDSF00KUMoPU8pQz02W0NAQF0oTzIpKFtDSDNdKVtDQEhdKENsKVtDQEBdMyhbT0hdKVtDQEBdKFtDSDNdKShDKD1PKUM2W0NIM10pW0NAQEhdKFtPSF0pW0NAQEhdKFtPSF0pW0NAQEhdMVtDSF09QzVbQ0gzXQ==

>  <s_epik_cmdline>  (70) 
J2VwaWtfcHl0aG9uJywgJy1waHQnLCAnMi4wJywgJy1waCcsICc3LjAnLCAnLXRuJywgJzgnLCAnLW1hJywgJzIwMCcsICctaW1hZScsICc8aW5maWxlLm1hZT4nLCAnLW9tYWUnLCAnPG91dGZpbGUubWFlPic=

>  <r_epik_Ionization_Penalty>  (70) 
0.00290765

>  <r_epik_Ionization_Penalty_Charging>  (70) 
0

>  <r_epik_Ionization_Penalty_Neutral>  (70) 
0.00290765

>  <r_epik_State_Penalty>  (70) 
0.00201207

>  <r_epik_Charging_Adjusted_Penalty>  (70) 
0.00201207

>  <i_epik_Tot_Q>  (70) 
0

>  <i_epik_Tot_abs_Q>  (70) 
0

>  <s_lp_Force_Field>  (70) 
OPLS3e

>  <r_lp_Energy>  (70) 
198.546

>  <b_lp_Chiralities_Consistent>  (70) 
1

>  <s_lp_Variant>  (70) 
21:0-1

>  <s_i_glide_gridfile>  (70) 
pfpi4k_grid

>  <i_i_glide_lignum>  (70) 
28

>  <i_i_glide_rotatable_bonds>  (70) 
4

>  <r_i_docking_score>  (70) 
-1.16078

>  <r_i_glide_ligand_efficiency>  (70) 
-0.032244

>  <r_i_glide_ligand_efficiency_sa>  (70) 
-0.106467

>  <r_i_glide_ligand_efficiency_ln>  (70) 
-0.253252

>  <r_i_glide_gscore>  (70) 
-1.16078

>  <r_i_glide_lipo>  (70) 
-0.651788

>  <r_i_glide_hbond>  (70) 
0

>  <r_i_glide_metal>  (70) 
-0

>  <r_i_glide_rewards>  (70) 
-0.0466564

>  <r_i_glide_evdw>  (70) 
4.18117

>  <r_i_glide_ecoul>  (70) 
-4.47591

>  <r_i_glide_erotb>  (70) 
0

>  <r_i_glide_esite>  (70) 
-1.11376e-05

>  <r_i_glide_emodel>  (70) 
0.366649

>  <r_i_glide_energy>  (70) 
-0.294738

>  <r_i_glide_einternal>  (70) 
0.593385

>  <r_i_glide_intrahb_reward>  (70) 
-0

>  <i_i_glide_confnum>  (70) 
2

>  <i_i_glide_posenum>  (70) 
31

>  <r_i_glide_eff_state_penalty>  (70) 
0

>  <ligand_id>  (70) 
21

>  <original_smiles>  (70) 
COC1C(C)=CC2C3(C)OC1C(=O)C1=C(C)C(=O)C4(C)C(O)C(O)C(C=C3C)C23OC1(C)C(Cl)C43O

>  <smiles>  (70) 
[H]OC1([H])C([H])(O[H])C2(C([H])([H])[H])C(=O)C(C([H])([H])[H])=C3C(=O)C4([H])OC5(C([H])([H])[H])C(C([H])([H])[H])=C([H])C1([H])C1(OC3(C([H])([H])[H])C([H])(Cl)C12O[H])C5([H])C([H])=C(C([H])([H])[H])C4([H])OC([H])([H])[H]

$$$$
22:0:0
     RDKit          3D

 67 71  0  0  1  0  0  0  0  0999 V2000
    4.8243   -5.7014    0.7908 C   0  0  0  0  0  0  0  0  0  0  0  0
    4.1987   -6.8492    1.3391 O   0  0  0  0  0  0  0  0  0  0  0  0
    4.7497   -7.2813    2.5756 C   0  0  0  0  0  0  0  0  0  0  0  0
    4.1868   -8.6202    3.2215 C   0  0  1  0  0  0  0  0  0  0  0  0
    4.4181   -9.7130    2.1004 C   0  0  1  0  0  0  0  0  0  0  0  0
    3.7996   -9.4591    0.8750 O   0  0  0  0  0  0  0  0  0  0  0  0
    5.8780  -10.0380    1.7072 C   0  0  0  0  0  0  0  0  0  0  0  0
    6.7905  -10.6169    2.7975 C   0  0  1  0  0  0  0  0  0  0  0  0
    7.3782   -9.7248    3.9043 C   0  0  1  0  0  0  0  0  0  0  0  0
    7.6364   -8.2376    3.7902 C   0  0  0  0  0  0  0  0  0  0  0  0
    6.9311   -7.3466    4.5225 C   0  0  0  0  0  0  0  0  0  0  0  0
    7.3086   -5.8775    4.6074 C   0  0  0  0  0  0  0  0  0  0  0  0
    5.6640   -7.7606    5.2734 C   0  0  0  0  0  0  0  0  0  0  0  0
    4.9238   -9.0336    4.6847 C   0  0  1  0  0  0  0  0  0  0  0  0
    3.9458   -9.6550    5.8135 C   0  0  1  0  0  0  0  0  0  0  0  0
    4.1654   -9.1931    7.2731 C   0  0  0  0  0  0  0  0  0  0  0  0
    2.4148   -9.7046    5.6133 C   0  0  0  0  0  0  0  0  0  0  0  0
    1.9958   -9.6181    4.1647 C   0  0  1  0  0  0  0  0  0  0  0  0
    0.4840   -9.5667    3.9148 C   0  0  0  0  0  0  0  0  0  0  0  0
    0.3830   -9.0621    2.4755 C   0  0  1  0  0  0  0  0  0  0  0  0
   -0.9604   -8.3922    2.1493 C   0  0  0  0  0  0  0  0  0  0  0  0
    1.5835   -8.1192    2.3811 C   0  0  0  0  0  0  0  0  0  0  0  0
    1.5988   -7.1681    1.5925 O   0  0  0  0  0  0  0  0  0  0  0  0
    2.6245   -8.3851    3.5000 C   0  0  2  0  0  0  0  0  0  0  0  0
    2.5093   -7.2699    4.3798 O   0  0  0  0  0  0  0  0  0  0  0  0
    6.1167  -10.0773    4.6767 C   0  0  1  0  0  0  0  0  0  0  0  0
    6.1952  -11.4667    3.9652 C   0  0  0  0  0  0  0  0  0  0  0  0
    4.9273  -12.3213    3.7752 C   0  0  0  0  0  0  0  0  0  0  0  0
    7.1756  -12.4993    4.5944 C   0  0  0  0  0  0  0  0  0  0  0  0
    4.3396   -5.4459   -0.1512 H   0  0  0  0  0  0  0  0  0  0  0  0
    5.8800   -5.8776    0.5823 H   0  0  0  0  0  0  0  0  0  0  0  0
    4.7384   -4.8444    1.4585 H   0  0  0  0  0  0  0  0  0  0  0  0
    5.7969   -7.3904    2.3264 H   0  0  0  0  0  0  0  0  0  0  0  0
    4.6538   -6.4375    3.2586 H   0  0  0  0  0  0  0  0  0  0  0  0
    3.9189  -10.6253    2.3570 H   0  0  0  0  0  0  0  0  0  0  0  0
    3.7978  -10.3195    0.4465 H   0  0  0  0  0  0  0  0  0  0  0  0
    5.8369  -10.7891    0.9198 H   0  0  0  0  0  0  0  0  0  0  0  0
    6.3554   -9.1901    1.2183 H   0  0  0  0  0  0  0  0  0  0  0  0
    7.6005  -11.1882    2.3392 H   0  0  0  0  0  0  0  0  0  0  0  0
    8.2875  -10.1464    4.3317 H   0  0  0  0  0  0  0  0  0  0  0  0
    8.5095   -7.9324    3.2309 H   0  0  0  0  0  0  0  0  0  0  0  0
    6.5158   -5.2499    4.1969 H   0  0  0  0  0  0  0  0  0  0  0  0
    8.2290   -5.6794    4.0564 H   0  0  0  0  0  0  0  0  0  0  0  0
    7.4684   -5.5917    5.6485 H   0  0  0  0  0  0  0  0  0  0  0  0
    6.0593   -7.9507    6.2683 H   0  0  0  0  0  0  0  0  0  0  0  0
    4.9817   -6.9194    5.3932 H   0  0  0  0  0  0  0  0  0  0  0  0
    4.1914  -10.7121    5.8838 H   0  0  0  0  0  0  0  0  0  0  0  0
    3.9484   -8.1324    7.3929 H   0  0  0  0  0  0  0  0  0  0  0  0
    5.1736   -9.3886    7.6330 H   0  0  0  0  0  0  0  0  0  0  0  0
    3.4944   -9.7230    7.9505 H   0  0  0  0  0  0  0  0  0  0  0  0
    2.0383  -10.6477    6.0138 H   0  0  0  0  0  0  0  0  0  0  0  0
    1.9122   -8.9311    6.1968 H   0  0  0  0  0  0  0  0  0  0  0  0
    2.3122  -10.5291    3.6647 H   0  0  0  0  0  0  0  0  0  0  0  0
    0.0146  -10.5433    4.0377 H   0  0  0  0  0  0  0  0  0  0  0  0
    0.0064   -8.8691    4.6078 H   0  0  0  0  0  0  0  0  0  0  0  0
    0.5604   -9.8948    1.7909 H   0  0  0  0  0  0  0  0  0  0  0  0
   -0.9828   -8.0431    1.1189 H   0  0  0  0  0  0  0  0  0  0  0  0
   -1.1569   -7.5359    2.7935 H   0  0  0  0  0  0  0  0  0  0  0  0
   -1.7840   -9.0932    2.2728 H   0  0  0  0  0  0  0  0  0  0  0  0
    3.0778   -7.4263    5.1130 H   0  0  0  0  0  0  0  0  0  0  0  0
    6.4494  -10.2419    5.7048 H   0  0  0  0  0  0  0  0  0  0  0  0
    4.9203  -13.2292    4.3811 H   0  0  0  0  0  0  0  0  0  0  0  0
    4.8083  -12.6397    2.7354 H   0  0  0  0  0  0  0  0  0  0  0  0
    4.0227  -11.7999    4.0765 H   0  0  0  0  0  0  0  0  0  0  0  0
    6.8168  -12.8446    5.5660 H   0  0  0  0  0  0  0  0  0  0  0  0
    8.1860  -12.1333    4.7658 H   0  0  0  0  0  0  0  0  0  0  0  0
    7.2855  -13.3772    3.9536 H   0  0  0  0  0  0  0  0  0  0  0  0
  1  2  1  0
  1 30  1  0
  1 31  1  0
  1 32  1  0
  2  3  1  0
  4  3  1  6
  3 33  1  0
  3 34  1  0
  4 14  1  0
  4 24  1  0
  4  5  1  0
  5  6  1  0
  5  7  1  0
  5 35  1  1
  6 36  1  0
  7  8  1  0
  7 37  1  0
  7 38  1  0
  8 27  1  0
  8  9  1  0
  8 39  1  6
  9 26  1  0
  9 10  1  0
  9 40  1  1
 10 11  2  0
 10 41  1  0
 11 12  1  0
 11 13  1  0
 12 42  1  0
 12 43  1  0
 12 44  1  0
 14 13  1  1
 13 45  1  0
 13 46  1  0
 14 15  1  0
 14 26  1  0
 15 16  1  0
 15 17  1  0
 15 47  1  1
 16 48  1  0
 16 49  1  0
 16 50  1  0
 17 18  1  0
 17 51  1  0
 17 52  1  0
 18 24  1  0
 18 19  1  0
 18 53  1  6
 19 20  1  0
 19 54  1  0
 19 55  1  0
 20 21  1  0
 20 22  1  0
 20 56  1  6
 21 57  1  0
 21 58  1  0
 21 59  1  0
 22 23  2  0
 22 24  1  0
 24 25  1  1
 25 60  1  0
 26 27  1  0
 26 61  1  1
 27 28  1  0
 27 29  1  0
 28 62  1  0
 28 63  1  0
 28 64  1  0
 29 65  1  0
 29 66  1  0
 29 67  1  0
M  END
>  <i_m_ct_stereo_status>  (71) 
1

>  <s_m_source_file>  (71) 
/var/tmp/pbs.5076255.sched01/tmp98udq4tg/0t315e5yz.sdf

>  <i_m_source_file_index>  (71) 
32

>  <i_lp_mmshare_version>  (71) 
48012

>  <i_f3d_flags>  (71) 
0

>  <s_epik_input>  (71) 
Tz1DMVtDQEhdKFtDSDNdKVtDSDJdW0NASF0oW0NIMl1bQ0BASF0yW0NIM10pW0NAQF0xKFtPSF0pW0NAXShbQ0BdMjM0KShbQ0gyXU9bQ0gzXSlbQ0BASF0oW09IXSlbQ0gyXVtDQEhdNVtDQEBIXShbQ0hdPUMoW0NIM10pW0NIMl0zKVtDQEBIXTRDNShbQ0gzXSlbQ0gzXQ==

>  <s_epik_cmdline>  (71) 
J2VwaWtfcHl0aG9uJywgJy1waHQnLCAnMi4wJywgJy1waCcsICc3LjAnLCAnLXRuJywgJzgnLCAnLW1hJywgJzIwMCcsICctaW1hZScsICc8aW5maWxlLm1hZT4nLCAnLW9tYWUnLCAnPG91dGZpbGUubWFlPic=

>  <r_lp_tautomer_probability>  (71) 
1

>  <r_epik_Ionization_Penalty>  (71) 
2.57201e-07

>  <r_epik_Ionization_Penalty_Charging>  (71) 
0

>  <r_epik_Ionization_Penalty_Neutral>  (71) 
2.57201e-07

>  <r_epik_State_Penalty>  (71) 
-0

>  <r_epik_Charging_Adjusted_Penalty>  (71) 
0

>  <i_epik_Tot_Q>  (71) 
0

>  <i_epik_Tot_abs_Q>  (71) 
0

>  <s_lp_Force_Field>  (71) 
OPLS3e

>  <r_lp_Energy>  (71) 
111.256

>  <b_lp_Chiralities_Consistent>  (71) 
1

>  <s_lp_Variant>  (71) 
22:0-1

>  <s_i_glide_gridfile>  (71) 
pfpi4k_grid

>  <i_i_glide_lignum>  (71) 
32

>  <i_i_glide_rotatable_bonds>  (71) 
4

>  <r_i_docking_score>  (71) 
-2.402

>  <r_i_glide_ligand_efficiency>  (71) 
-0.0828276

>  <r_i_glide_ligand_efficiency_sa>  (71) 
-0.254473

>  <r_i_glide_ligand_efficiency_ln>  (71) 
-0.549997

>  <r_i_glide_gscore>  (71) 
-2.402

>  <r_i_glide_lipo>  (71) 
-0.110709

>  <r_i_glide_hbond>  (71) 
0

>  <r_i_glide_metal>  (71) 
-0

>  <r_i_glide_rewards>  (71) 
-0.664317

>  <r_i_glide_evdw>  (71) 
-20.4599

>  <r_i_glide_ecoul>  (71) 
-4.69705

>  <r_i_glide_erotb>  (71) 
0.121097

>  <r_i_glide_esite>  (71) 
-0.0205165

>  <r_i_glide_emodel>  (71) 
-28.9332

>  <r_i_glide_energy>  (71) 
-25.157

>  <r_i_glide_einternal>  (71) 
0.465874

>  <r_i_glide_intrahb_reward>  (71) 
-0

>  <i_i_glide_confnum>  (71) 
1

>  <i_i_glide_posenum>  (71) 
27

>  <r_i_glide_eff_state_penalty>  (71) 
0

>  <ligand_id>  (71) 
22

>  <original_smiles>  (71) 
COCC12C(O)CC3C4C=C(C)CC1(C(C)CC1CC(C)C(=O)C12O)C4C3(C)C

>  <smiles>  (71) 
[H]OC1([H])C([H])([H])C2([H])C3([H])C([H])=C(C([H])([H])[H])C([H])([H])C4(C([H])(C([H])([H])[H])C([H])([H])C5([H])C([H])([H])C([H])(C([H])([H])[H])C(=O)C5(O[H])C14C([H])([H])OC([H])([H])[H])C3([H])C2(C([H])([H])[H])C([H])([H])[H]

$$$$
23:0:0
     RDKit          3D

 73 81  0  0  1  0  0  0  0  0999 V2000
    5.9395   -0.7537    1.7534 C   0  0  0  0  0  0  0  0  0  0  0  0
    5.6799   -2.2854    1.7828 C   0  0  2  0  0  0  0  0  0  0  0  0
    5.7081   -3.1037    0.3481 C   0  0  1  0  0  0  0  0  0  0  0  0
    6.7763   -2.4799   -0.5827 C   0  0  0  0  0  0  0  0  0  0  0  0
    6.0425   -4.6149    0.0512 O   0  0  0  0  0  0  0  0  0  0  0  0
    6.1743   -5.7990    1.0104 C   0  0  1  0  0  0  0  0  0  0  0  0
    7.6395   -5.6458    1.5487 C   0  0  0  0  0  0  0  0  0  0  0  0
    8.6829   -5.0800    1.2210 O   0  0  0  0  0  0  0  0  0  0  0  0
    7.2502   -6.6860    2.5357 C   0  0  1  0  0  0  0  0  0  0  0  0
    8.4018   -7.3059    3.0730 O   0  0  0  0  0  0  0  0  0  0  0  0
    6.4970   -5.7132    3.5941 C   0  0  0  0  0  0  0  0  0  0  0  0
    5.2555   -4.7526    2.9647 C   0  0  1  0  0  0  0  0  0  0  0  0
    4.1814   -5.3149    1.7230 C   0  0  2  0  0  0  0  0  0  0  0  0
    2.6164   -5.4597    1.5208 C   0  0  0  0  0  0  0  0  0  0  0  0
    2.1632   -5.8710    0.4580 O   0  0  0  0  0  0  0  0  0  0  0  0
    1.7938   -5.0725    2.4794 O   0  0  0  0  0  0  0  0  0  0  0  0
    2.1242   -4.9932    3.8369 C   0  0  1  0  0  0  0  0  0  0  0  0
    1.0803   -5.7629    4.6032 C   0  0  0  0  0  0  0  0  0  0  0  0
    0.6548   -7.1029    4.3672 C   0  0  0  0  0  0  0  0  0  0  0  0
   -0.3237   -7.3556    5.2735 C   0  0  0  0  0  0  0  0  0  0  0  0
   -0.5698   -6.2559    6.0372 O   0  0  0  0  0  0  0  0  0  0  0  0
    0.3057   -5.3112    5.6313 C   0  0  0  0  0  0  0  0  0  0  0  0
    3.6027   -5.3495    4.1293 C   0  0  1  0  0  0  0  0  0  0  0  0
    3.7114   -5.7541    5.6317 C   0  0  0  0  0  0  0  0  0  0  0  0
    4.0652   -6.7834    3.2843 C   0  0  0  0  0  0  0  0  0  0  0  0
    4.8020   -6.5107    1.7887 C   0  0  2  0  0  0  0  0  0  0  0  0
    5.1327   -7.6833    0.8952 C   0  0  0  0  0  0  0  0  0  0  0  0
    6.6168   -7.2737    1.1633 C   0  0  1  0  0  0  0  0  0  0  0  0
    4.4458   -3.9364    3.7652 C   0  0  1  0  0  0  0  0  0  0  0  0
    5.2145   -3.3640    4.9956 C   0  0  0  0  0  0  0  0  0  0  0  0
    4.3417   -2.6993    5.8860 O   0  0  0  0  0  0  0  0  0  0  0  0
    4.3245   -2.6665    2.6146 C   0  0  1  0  0  0  0  0  0  0  0  0
    3.8943   -1.5683    3.4164 O   0  0  0  0  0  0  0  0  0  0  0  0
    3.0017   -0.7686    2.7246 C   0  0  0  0  0  0  0  0  0  0  0  0
    2.9611   -1.1680    1.4122 O   0  0  0  0  0  0  0  0  0  0  0  0
    3.3994   -2.5090    1.3362 C   0  0  1  0  0  0  0  0  0  0  0  0
    4.2252   -2.6688   -0.0331 C   0  0  1  0  0  0  0  0  0  0  0  0
    4.0846   -1.4276   -0.9786 C   0  0  0  0  0  0  0  0  0  0  0  0
    3.6396   -3.6090   -0.9039 O   0  0  0  0  0  0  0  0  0  0  0  0
    5.1869   -0.1371    1.2795 H   0  0  0  0  0  0  0  0  0  0  0  0
    6.8844   -0.5742    1.2583 H   0  0  0  0  0  0  0  0  0  0  0  0
    6.0452   -0.3541    2.7643 H   0  0  0  0  0  0  0  0  0  0  0  0
    6.6080   -2.4430    2.3297 H   0  0  0  0  0  0  0  0  0  0  0  0
    6.6821   -1.4032   -0.7036 H   0  0  0  0  0  0  0  0  0  0  0  0
    6.7169   -2.9027   -1.5834 H   0  0  0  0  0  0  0  0  0  0  0  0
    7.7807   -2.6700   -0.2080 H   0  0  0  0  0  0  0  0  0  0  0  0
    9.0554   -7.3837    2.3792 H   0  0  0  0  0  0  0  0  0  0  0  0
    6.2187   -6.2929    4.4607 H   0  0  0  0  0  0  0  0  0  0  0  0
    7.2467   -5.0569    4.0376 H   0  0  0  0  0  0  0  0  0  0  0  0
    6.0705   -4.1938    2.6659 H   0  0  0  0  0  0  0  0  0  0  0  0
    4.2069   -4.8922    0.7727 H   0  0  0  0  0  0  0  0  0  0  0  0
    1.9742   -3.9508    4.1211 H   0  0  0  0  0  0  0  0  0  0  0  0
    0.9977   -7.8081    3.6191 H   0  0  0  0  0  0  0  0  0  0  0  0
   -0.9360   -8.2269    5.4719 H   0  0  0  0  0  0  0  0  0  0  0  0
    0.2251   -4.3717    6.1561 H   0  0  0  0  0  0  0  0  0  0  0  0
    4.7361   -5.9313    5.9609 H   0  0  0  0  0  0  0  0  0  0  0  0
    3.1882   -6.6943    5.8349 H   0  0  0  0  0  0  0  0  0  0  0  0
    3.2808   -4.9980    6.2924 H   0  0  0  0  0  0  0  0  0  0  0  0
    4.6695   -7.4546    3.8974 H   0  0  0  0  0  0  0  0  0  0  0  0
    3.1836   -7.4084    3.1465 H   0  0  0  0  0  0  0  0  0  0  0  0
    4.8597   -8.6302    1.3653 H   0  0  0  0  0  0  0  0  0  0  0  0
    4.7581   -7.5960   -0.1281 H   0  0  0  0  0  0  0  0  0  0  0  0
    7.3649   -7.7064    0.4859 H   0  0  0  0  0  0  0  0  0  0  0  0
    5.7705   -4.1091    5.5573 H   0  0  0  0  0  0  0  0  0  0  0  0
    5.9571   -2.6422    4.6683 H   0  0  0  0  0  0  0  0  0  0  0  0
    3.9464   -1.9854    5.4041 H   0  0  0  0  0  0  0  0  0  0  0  0
    2.0117   -0.7734    3.1881 H   0  0  0  0  0  0  0  0  0  0  0  0
    3.3785    0.2528    2.7294 H   0  0  0  0  0  0  0  0  0  0  0  0
    2.4483   -3.0224    1.3538 H   0  0  0  0  0  0  0  0  0  0  0  0
    4.4993   -0.4990   -0.5997 H   0  0  0  0  0  0  0  0  0  0  0  0
    3.0372   -1.2121   -1.1938 H   0  0  0  0  0  0  0  0  0  0  0  0
    4.5614   -1.5976   -1.9430 H   0  0  0  0  0  0  0  0  0  0  0  0
    2.8001   -3.2752   -1.1805 H   0  0  0  0  0  0  0  0  0  0  0  0
  1  2  1  0
  1 40  1  0
  1 41  1  0
  1 42  1  0
  2 32  1  0
  2  3  1  0
  2 43  1  1
  3 37  1  0
  3  4  1  6
  3  5  1  0
  4 44  1  0
  4 45  1  0
  4 46  1  0
  6  5  1  6
  6 26  1  0
  6 28  1  0
  6  7  1  0
  7  8  2  0
  7  9  1  0
  9 28  1  0
  9 10  1  1
  9 11  1  0
 10 47  1  0
 11 12  1  0
 11 48  1  0
 11 49  1  0
 12 29  1  0
 12 13  1  0
 12 50  1  6
 13 26  1  0
 13 14  1  0
 13 51  1  6
 14 15  2  0
 14 16  1  0
 16 17  1  0
 17 18  1  0
 17 23  1  0
 17 52  1  1
 18 22  2  0
 18 19  1  0
 19 20  2  0
 19 53  1  0
 20 21  1  0
 20 54  1  0
 21 22  1  0
 22 55  1  0
 23 24  1  1
 23 25  1  0
 23 29  1  0
 24 56  1  0
 24 57  1  0
 24 58  1  0
 25 26  1  0
 25 59  1  0
 25 60  1  0
 26 27  1  6
 27 28  1  0
 27 61  1  0
 27 62  1  0
 28 63  1  6
 29 30  1  1
 29 32  1  0
 30 31  1  0
 30 64  1  0
 30 65  1  0
 31 66  1  0
 32 36  1  0
 32 33  1  1
 33 34  1  0
 34 35  1  0
 34 67  1  0
 34 68  1  0
 35 36  1  0
 36 37  1  0
 36 69  1  1
 37 38  1  0
 37 39  1  6
 38 70  1  0
 38 71  1  0
 38 72  1  0
 39 73  1  0
M  END
>  <i_m_ct_stereo_status>  (72) 
1

>  <s_m_source_file>  (72) 
/var/tmp/pbs.5076255.sched01/tmp98udq4tg/0t315e5yz.sdf

>  <i_m_source_file_index>  (72) 
33

>  <i_lp_mmshare_version>  (72) 
48012

>  <i_f3d_flags>  (72) 
0

>  <s_epik_input>  (72) 
W0NIM11bQ0BASF0xW0NAXShPMikoW0NIM10pW0NAQF0oW0NIM10pKFtPSF0pW0NASF0oT1tDSDJdTzMpW0NAQF0xM1tDQF0oW0NIMl1bT0hdKShbQ0BIXShbQ0BIXTRbQ0BAXTU2W0NAQF0yNzgpW0NIMl1bQ0BAXShDNz1PKShbT0hdKVtDQEhdOFtDSDJdNilbQ0BdKFtDSDNdKShbQ0gyXTUpW0NAQEhdKE9DND1PKWM5W2NIXVtjSF1vW2NIXTk=

>  <s_epik_cmdline>  (72) 
J2VwaWtfcHl0aG9uJywgJy1waHQnLCAnMi4wJywgJy1waCcsICc3LjAnLCAnLXRuJywgJzgnLCAnLW1hJywgJzIwMCcsICctaW1hZScsICc8aW5maWxlLm1hZT4nLCAnLW9tYWUnLCAnPG91dGZpbGUubWFlPic=

>  <r_lp_tautomer_probability>  (72) 
1

>  <r_epik_Ionization_Penalty>  (72) 
4.06714e-07

>  <r_epik_Ionization_Penalty_Charging>  (72) 
0

>  <r_epik_Ionization_Penalty_Neutral>  (72) 
4.06714e-07

>  <r_epik_State_Penalty>  (72) 
-0

>  <r_epik_Charging_Adjusted_Penalty>  (72) 
0

>  <i_epik_Tot_Q>  (72) 
0

>  <i_epik_Tot_abs_Q>  (72) 
0

>  <s_epik_Chemistry_Notes>  (72) 
This compound has an ester and may undergo hydrolysis at high or low pH. This compound contains an acetal/aminal-like group ( X-CH(R)-Y where X, Y are N, S, or O) that may be acid/base labile, releasing an aldehyde.

>  <s_lp_Force_Field>  (72) 
OPLS3e

>  <r_lp_Energy>  (72) 
515.619

>  <b_lp_Chiralities_Consistent>  (72) 
1

>  <s_lp_Variant>  (72) 
23:0-1

>  <s_i_glide_gridfile>  (72) 
pfpi4k_grid

>  <i_i_glide_lignum>  (72) 
33

>  <i_i_glide_rotatable_bonds>  (72) 
5

>  <r_i_docking_score>  (72) 
-2.58225

>  <r_i_glide_ligand_efficiency>  (72) 
-0.0662115

>  <r_i_glide_ligand_efficiency_sa>  (72) 
-0.224537

>  <r_i_glide_ligand_efficiency_ln>  (72) 
-0.553707

>  <r_i_glide_gscore>  (72) 
-2.58225

>  <r_i_glide_lipo>  (72) 
-0.520836

>  <r_i_glide_hbond>  (72) 
0

>  <r_i_glide_metal>  (72) 
-0

>  <r_i_glide_rewards>  (72) 
-0.583764

>  <r_i_glide_evdw>  (72) 
-24.3509

>  <r_i_glide_ecoul>  (72) 
-2.52306

>  <r_i_glide_erotb>  (72) 
0.140544

>  <r_i_glide_esite>  (72) 
-0.0221865

>  <r_i_glide_emodel>  (72) 
-34.0705

>  <r_i_glide_energy>  (72) 
-26.874

>  <r_i_glide_einternal>  (72) 
3.08675

>  <r_i_glide_intrahb_reward>  (72) 
-0.5

>  <i_i_glide_confnum>  (72) 
2

>  <i_i_glide_posenum>  (72) 
6

>  <r_i_glide_eff_state_penalty>  (72) 
0

>  <ligand_id>  (72) 
23

>  <original_smiles>  (72) 
CC1C2(C)OC34C(=O)C5(O)CC6C7C(=O)OC(c8ccoc8)C(C)(CC73CC54)C6(CO)C13OCOC3C2(C)O

>  <smiles>  (72) 
[H]OC([H])([H])C12C3([H])C([H])([H])C4(O[H])C(=O)C5(OC6(C([H])([H])[H])C([H])(C([H])([H])[H])C17OC([H])([H])OC7([H])C6(O[H])C([H])([H])[H])C4([H])C([H])([H])C51C([H])([H])C2(C([H])([H])[H])C([H])(c2c([H])oc([H])c2[H])OC(=O)C31[H]

$$$$
23:0:1
     RDKit          3D

 73 81  0  0  1  0  0  0  0  0999 V2000
    5.9642   -2.9987    1.3019 C   0  0  0  0  0  0  0  0  0  0  0  0
    5.1884   -4.2460    1.8317 C   0  0  2  0  0  0  0  0  0  0  0  0
    4.4862   -5.2389    0.7317 C   0  0  1  0  0  0  0  0  0  0  0  0
    5.3850   -5.3132   -0.5115 C   0  0  0  0  0  0  0  0  0  0  0  0
    4.1500   -6.7680    0.8414 O   0  0  0  0  0  0  0  0  0  0  0  0
    4.1361   -7.7063    2.0531 C   0  0  1  0  0  0  0  0  0  0  0  0
    5.6534   -8.0770    2.2637 C   0  0  0  0  0  0  0  0  0  0  0  0
    6.6901   -8.0362    1.5947 O   0  0  0  0  0  0  0  0  0  0  0  0
    5.1885   -8.6503    3.5442 C   0  0  1  0  0  0  0  0  0  0  0  0
    6.1320   -9.5821    4.0243 O   0  0  0  0  0  0  0  0  0  0  0  0
    5.2138   -7.2635    4.3822 C   0  0  0  0  0  0  0  0  0  0  0  0
    4.2611   -6.0198    3.7636 C   0  0  1  0  0  0  0  0  0  0  0  0
    2.7507   -6.2935    2.9684 C   0  0  2  0  0  0  0  0  0  0  0  0
    1.2411   -5.8468    3.1158 C   0  0  0  0  0  0  0  0  0  0  0  0
    0.3999   -6.2702    2.3188 O   0  0  0  0  0  0  0  0  0  0  0  0
    0.9253   -4.9514    4.0345 O   0  0  0  0  0  0  0  0  0  0  0  0
    1.6340   -4.7580    5.2432 C   0  0  1  0  0  0  0  0  0  0  0  0
    0.6640   -4.8153    6.4022 C   0  0  0  0  0  0  0  0  0  0  0  0
    0.7784   -4.1817    7.6848 C   0  0  0  0  0  0  0  0  0  0  0  0
   -0.3445   -4.5297    8.3871 C   0  0  0  0  0  0  0  0  0  0  0  0
   -1.1685   -5.2839    7.6240 O   0  0  0  0  0  0  0  0  0  0  0  0
   -0.5384   -5.4527    6.4364 C   0  0  0  0  0  0  0  0  0  0  0  0
    2.9127   -5.6304    5.3399 C   0  0  1  0  0  0  0  0  0  0  0  0
    3.3341   -5.7525    6.8331 C   0  0  0  0  0  0  0  0  0  0  0  0
    2.5750   -7.2638    4.8885 C   0  0  0  0  0  0  0  0  0  0  0  0
    2.8851   -7.6053    3.2496 C   0  0  2  0  0  0  0  0  0  0  0  0
    2.4947   -8.9447    2.6884 C   0  0  0  0  0  0  0  0  0  0  0  0
    4.0232   -9.1637    2.5054 C   0  0  1  0  0  0  0  0  0  0  0  0
    4.0728   -4.7886    4.4202 C   0  0  1  0  0  0  0  0  0  0  0  0
    5.3342   -4.3681    5.2502 C   0  0  0  0  0  0  0  0  0  0  0  0
    5.1099   -3.2265    6.0614 O   0  0  0  0  0  0  0  0  0  0  0  0
    4.0909   -3.8489    2.9829 C   0  0  1  0  0  0  0  0  0  0  0  0
    4.3565   -2.5382    3.4714 O   0  0  0  0  0  0  0  0  0  0  0  0
    3.6191   -1.5982    2.7766 C   0  0  0  0  0  0  0  0  0  0  0  0
    3.0547   -2.1878    1.6684 O   0  0  0  0  0  0  0  0  0  0  0  0
    2.9466   -3.5726    1.9212 C   0  0  1  0  0  0  0  0  0  0  0  0
    3.2071   -4.3289    0.5282 C   0  0  1  0  0  0  0  0  0  0  0  0
    3.2524   -3.3451   -0.6839 C   0  0  0  0  0  0  0  0  0  0  0  0
    2.1117   -5.0996    0.0650 O   0  0  0  0  0  0  0  0  0  0  0  0
    5.3614   -2.2312    0.8287 H   0  0  0  0  0  0  0  0  0  0  0  0
    6.7681   -3.2625    0.6123 H   0  0  0  0  0  0  0  0  0  0  0  0
    6.4658   -2.4843    2.1247 H   0  0  0  0  0  0  0  0  0  0  0  0
    6.1149   -4.6752    2.2197 H   0  0  0  0  0  0  0  0  0  0  0  0
    5.6616   -4.3450   -0.9206 H   0  0  0  0  0  0  0  0  0  0  0  0
    4.8974   -5.8588   -1.3111 H   0  0  0  0  0  0  0  0  0  0  0  0
    6.3050   -5.8345   -0.2641 H   0  0  0  0  0  0  0  0  0  0  0  0
    5.8133   -9.9423    4.8373 H   0  0  0  0  0  0  0  0  0  0  0  0
    5.0394   -7.4736    5.4285 H   0  0  0  0  0  0  0  0  0  0  0  0
    6.2561   -6.9052    4.4302 H   0  0  0  0  0  0  0  0  0  0  0  0
    5.1019   -5.9260    3.1763 H   0  0  0  0  0  0  0  0  0  0  0  0
    2.6505   -6.1050    1.9557 H   0  0  0  0  0  0  0  0  0  0  0  0
    1.9574   -3.7175    5.2398 H   0  0  0  0  0  0  0  0  0  0  0  0
    1.5754   -3.5762    8.0606 H   0  0  0  0  0  0  0  0  0  0  0  0
   -0.6915   -4.3230    9.3818 H   0  0  0  0  0  0  0  0  0  0  0  0
   -1.0851   -6.0493    5.7123 H   0  0  0  0  0  0  0  0  0  0  0  0
    4.2658   -6.2933    6.9925 H   0  0  0  0  0  0  0  0  0  0  0  0
    2.5859   -6.3165    7.3961 H   0  0  0  0  0  0  0  0  0  0  0  0
    3.4438   -4.7766    7.3131 H   0  0  0  0  0  0  0  0  0  0  0  0
    3.0560   -7.9838    5.5442 H   0  0  0  0  0  0  0  0  0  0  0  0
    1.5295   -7.4510    5.1165 H   0  0  0  0  0  0  0  0  0  0  0  0
    2.0535   -9.5966    3.4477 H   0  0  0  0  0  0  0  0  0  0  0  0
    1.9169   -8.9230    1.7619 H   0  0  0  0  0  0  0  0  0  0  0  0
    4.2807   -9.9422    1.7814 H   0  0  0  0  0  0  0  0  0  0  0  0
    5.7103   -5.1638    5.8955 H   0  0  0  0  0  0  0  0  0  0  0  0
    6.1665   -4.1454    4.5793 H   0  0  0  0  0  0  0  0  0  0  0  0
    4.4037   -3.4256    6.6664 H   0  0  0  0  0  0  0  0  0  0  0  0
    2.8608   -1.1325    3.4131 H   0  0  0  0  0  0  0  0  0  0  0  0
    4.3028   -0.8239    2.4254 H   0  0  0  0  0  0  0  0  0  0  0  0
    1.9253   -3.6137    2.2811 H   0  0  0  0  0  0  0  0  0  0  0  0
    4.0548   -2.6179   -0.6723 H   0  0  0  0  0  0  0  0  0  0  0  0
    2.3334   -2.7608   -0.7382 H   0  0  0  0  0  0  0  0  0  0  0  0
    3.3421   -3.8570   -1.6386 H   0  0  0  0  0  0  0  0  0  0  0  0
    2.3508   -5.4246   -0.7903 H   0  0  0  0  0  0  0  0  0  0  0  0
  1  2  1  0
  1 40  1  0
  1 41  1  0
  1 42  1  0
  2 32  1  0
  2  3  1  0
  2 43  1  1
  3 37  1  0
  3  4  1  6
  3  5  1  0
  4 44  1  0
  4 45  1  0
  4 46  1  0
  6  5  1  6
  6 26  1  0
  6 28  1  0
  6  7  1  0
  7  8  2  0
  7  9  1  0
  9 28  1  0
  9 10  1  1
  9 11  1  0
 10 47  1  0
 11 12  1  0
 11 48  1  0
 11 49  1  0
 12 29  1  0
 12 13  1  0
 12 50  1  6
 13 26  1  0
 13 14  1  0
 13 51  1  6
 14 15  2  0
 14 16  1  0
 16 17  1  0
 17 18  1  0
 17 23  1  0
 17 52  1  6
 18 22  2  0
 18 19  1  0
 19 20  2  0
 19 53  1  0
 20 21  1  0
 20 54  1  0
 21 22  1  0
 22 55  1  0
 23 24  1  1
 23 25  1  0
 23 29  1  0
 24 56  1  0
 24 57  1  0
 24 58  1  0
 25 26  1  0
 25 59  1  0
 25 60  1  0
 26 27  1  6
 27 28  1  0
 27 61  1  0
 27 62  1  0
 28 63  1  6
 29 30  1  1
 29 32  1  0
 30 31  1  0
 30 64  1  0
 30 65  1  0
 31 66  1  0
 32 36  1  0
 32 33  1  1
 33 34  1  0
 34 35  1  0
 34 67  1  0
 34 68  1  0
 35 36  1  0
 36 37  1  0
 36 69  1  1
 37 38  1  0
 37 39  1  6
 38 70  1  0
 38 71  1  0
 38 72  1  0
 39 73  1  0
M  END
>  <i_m_ct_stereo_status>  (73) 
1

>  <s_m_source_file>  (73) 
/var/tmp/pbs.5076255.sched01/tmp98udq4tg/0t315e5yz.sdf

>  <i_m_source_file_index>  (73) 
33

>  <i_lp_mmshare_version>  (73) 
48012

>  <i_f3d_flags>  (73) 
0

>  <s_epik_input>  (73) 
W0NIM11bQ0BASF0xW0NAXShPMikoW0NIM10pW0NAQF0oW0NIM10pKFtPSF0pW0NASF0oT1tDSDJdTzMpW0NAQF0xM1tDQF0oW0NIMl1bT0hdKShbQ0BIXShbQ0BIXTRbQ0BAXTU2W0NAQF0yNzgpW0NIMl1bQ0BAXShDNz1PKShbT0hdKVtDQEhdOFtDSDJdNilbQ0BdKFtDSDNdKShbQ0gyXTUpW0NAQEhdKE9DND1PKWM5W2NIXVtjSF1vW2NIXTk=

>  <s_epik_cmdline>  (73) 
J2VwaWtfcHl0aG9uJywgJy1waHQnLCAnMi4wJywgJy1waCcsICc3LjAnLCAnLXRuJywgJzgnLCAnLW1hJywgJzIwMCcsICctaW1hZScsICc8aW5maWxlLm1hZT4nLCAnLW9tYWUnLCAnPG91dGZpbGUubWFlPic=

>  <r_lp_tautomer_probability>  (73) 
1

>  <r_epik_Ionization_Penalty>  (73) 
4.06714e-07

>  <r_epik_Ionization_Penalty_Charging>  (73) 
0

>  <r_epik_Ionization_Penalty_Neutral>  (73) 
4.06714e-07

>  <r_epik_State_Penalty>  (73) 
-0

>  <r_epik_Charging_Adjusted_Penalty>  (73) 
0

>  <i_epik_Tot_Q>  (73) 
0

>  <i_epik_Tot_abs_Q>  (73) 
0

>  <s_epik_Chemistry_Notes>  (73) 
This compound has an ester and may undergo hydrolysis at high or low pH. This compound contains an acetal/aminal-like group ( X-CH(R)-Y where X, Y are N, S, or O) that may be acid/base labile, releasing an aldehyde.

>  <s_lp_Force_Field>  (73) 
OPLS3e

>  <r_lp_Energy>  (73) 
515.619

>  <b_lp_Chiralities_Consistent>  (73) 
1

>  <s_lp_Variant>  (73) 
23:0-1

>  <s_i_glide_gridfile>  (73) 
pfpi4k_grid

>  <i_i_glide_lignum>  (73) 
33

>  <i_i_glide_rotatable_bonds>  (73) 
5

>  <r_i_docking_score>  (73) 
-2.46525

>  <r_i_glide_ligand_efficiency>  (73) 
-0.0632115

>  <r_i_glide_ligand_efficiency_sa>  (73) 
-0.214364

>  <r_i_glide_ligand_efficiency_ln>  (73) 
-0.528619

>  <r_i_glide_gscore>  (73) 
-2.46525

>  <r_i_glide_lipo>  (73) 
-0.327405

>  <r_i_glide_hbond>  (73) 
-0.130308

>  <r_i_glide_metal>  (73) 
-0

>  <r_i_glide_rewards>  (73) 
-0.0354874

>  <r_i_glide_evdw>  (73) 
-22.5241

>  <r_i_glide_ecoul>  (73) 
-6.37846

>  <r_i_glide_erotb>  (73) 
0.140544

>  <r_i_glide_esite>  (73) 
-0.0296165

>  <r_i_glide_emodel>  (73) 
-32.2402

>  <r_i_glide_energy>  (73) 
-28.9026

>  <r_i_glide_einternal>  (73) 
0.423177

>  <r_i_glide_intrahb_reward>  (73) 
-0

>  <i_i_glide_confnum>  (73) 
3

>  <i_i_glide_posenum>  (73) 
5

>  <r_i_glide_eff_state_penalty>  (73) 
0

>  <ligand_id>  (73) 
23

>  <original_smiles>  (73) 
CC1C2(C)OC34C(=O)C5(O)CC6C7C(=O)OC(c8ccoc8)C(C)(CC73CC54)C6(CO)C13OCOC3C2(C)O

>  <smiles>  (73) 
[H]OC([H])([H])C12C3([H])C([H])([H])C4(O[H])C(=O)C5(OC6(C([H])([H])[H])C([H])(C([H])([H])[H])C17OC([H])([H])OC7([H])C6(O[H])C([H])([H])[H])C4([H])C([H])([H])C51C([H])([H])C2(C([H])([H])[H])C([H])(c2c([H])oc([H])c2[H])OC(=O)C31[H]

$$$$
23:0:2
     RDKit          3D

 73 81  0  0  1  0  0  0  0  0999 V2000
    6.0636   -0.8886    1.8134 C   0  0  0  0  0  0  0  0  0  0  0  0
    5.7424   -2.4143    1.8186 C   0  0  2  0  0  0  0  0  0  0  0  0
    5.8584   -3.2361    0.3991 C   0  0  1  0  0  0  0  0  0  0  0  0
    7.0303   -2.6648   -0.4326 C   0  0  0  0  0  0  0  0  0  0  0  0
    6.1441   -4.7660    0.1467 O   0  0  0  0  0  0  0  0  0  0  0  0
    6.1668   -5.9467    1.1220 C   0  0  1  0  0  0  0  0  0  0  0  0
    7.5721   -5.8406    1.8067 C   0  0  0  0  0  0  0  0  0  0  0  0
    8.6456   -5.2857    1.5538 O   0  0  0  0  0  0  0  0  0  0  0  0
    7.0378   -6.8708    2.7377 C   0  0  1  0  0  0  0  0  0  0  0  0
    8.0957   -7.5305    3.3888 O   0  0  0  0  0  0  0  0  0  0  0  0
    6.2610   -5.8464    3.7133 C   0  0  0  0  0  0  0  0  0  0  0  0
    5.1141   -4.8548    2.9769 C   0  0  1  0  0  0  0  0  0  0  0  0
    4.1348   -5.3772    1.6575 C   0  0  2  0  0  0  0  0  0  0  0  0
    2.5941   -5.4727    1.3152 C   0  0  0  0  0  0  0  0  0  0  0  0
    2.2321   -5.8355    0.2008 O   0  0  0  0  0  0  0  0  0  0  0  0
    1.7138   -5.0526    2.1999 O   0  0  0  0  0  0  0  0  0  0  0  0
    1.9086   -4.9751    3.5788 C   0  0  1  0  0  0  0  0  0  0  0  0
    0.7617   -5.6923    4.2479 C   0  0  0  0  0  0  0  0  0  0  0  0
    0.1271   -6.9039    3.8018 C   0  0  0  0  0  0  0  0  0  0  0  0
   -0.8807   -7.1459    4.6802 C   0  0  0  0  0  0  0  0  0  0  0  0
   -0.9270   -6.1812    5.6357 O   0  0  0  0  0  0  0  0  0  0  0  0
    0.0825   -5.3216    5.3611 C   0  0  0  0  0  0  0  0  0  0  0  0
    3.3389   -5.3795    3.9927 C   0  0  1  0  0  0  0  0  0  0  0  0
    3.2991   -5.7711    5.4962 C   0  0  0  0  0  0  0  0  0  0  0  0
    3.8205   -6.8339    3.1985 C   0  0  0  0  0  0  0  0  0  0  0  0
    4.6987   -6.5933    1.7699 C   0  0  2  0  0  0  0  0  0  0  0  0
    5.0519   -7.7831    0.9155 C   0  0  0  0  0  0  0  0  0  0  0  0
    6.5215   -7.4384    1.2961 C   0  0  1  0  0  0  0  0  0  0  0  0
    4.2698   -3.9986    3.6933 C   0  0  1  0  0  0  0  0  0  0  0  0
    4.9543   -3.4351    4.9821 C   0  0  0  0  0  0  0  0  0  0  0  0
    4.0313   -2.7151    5.7781 O   0  0  0  0  0  0  0  0  0  0  0  0
    4.3017   -2.7344    2.5378 C   0  0  1  0  0  0  0  0  0  0  0  0
    3.8502   -1.6094    3.2959 O   0  0  0  0  0  0  0  0  0  0  0  0
    3.0461   -0.7952    2.5134 C   0  0  0  0  0  0  0  0  0  0  0  0
    3.1242   -1.1936    1.1982 O   0  0  0  0  0  0  0  0  0  0  0  0
    3.5013   -2.5516    1.1794 C   0  0  1  0  0  0  0  0  0  0  0  0
    4.4340   -2.7561   -0.1119 C   0  0  1  0  0  0  0  0  0  0  0  0
    4.4257   -1.5211   -1.0703 C   0  0  0  0  0  0  0  0  0  0  0  0
    3.9083   -3.6875   -1.0255 O   0  0  0  0  0  0  0  0  0  0  0  0
    5.3707   -0.2540    1.2694 H   0  0  0  0  0  0  0  0  0  0  0  0
    7.0584   -0.6787    1.4274 H   0  0  0  0  0  0  0  0  0  0  0  0
    6.0741   -0.4941    2.8336 H   0  0  0  0  0  0  0  0  0  0  0  0
    6.6102   -2.6038    2.4479 H   0  0  0  0  0  0  0  0  0  0  0  0
    6.9945   -1.5860   -0.5525 H   0  0  0  0  0  0  0  0  0  0  0  0
    7.0426   -3.0943   -1.4305 H   0  0  0  0  0  0  0  0  0  0  0  0
    7.9854   -2.8933    0.0356 H   0  0  0  0  0  0  0  0  0  0  0  0
    7.7204   -8.1676    3.9757 H   0  0  0  0  0  0  0  0  0  0  0  0
    5.8851   -6.3882    4.5656 H   0  0  0  0  0  0  0  0  0  0  0  0
    6.9992   -5.2054    4.2152 H   0  0  0  0  0  0  0  0  0  0  0  0
    5.9720   -4.3320    2.7604 H   0  0  0  0  0  0  0  0  0  0  0  0
    4.2644   -4.9721    0.7192 H   0  0  0  0  0  0  0  0  0  0  0  0
    1.7722   -3.9221    3.8404 H   0  0  0  0  0  0  0  0  0  0  0  0
    0.3600   -7.5110    2.9443 H   0  0  0  0  0  0  0  0  0  0  0  0
   -1.6213   -7.9307    4.7703 H   0  0  0  0  0  0  0  0  0  0  0  0
    0.1577   -4.4798    6.0431 H   0  0  0  0  0  0  0  0  0  0  0  0
    4.2771   -5.9912    5.9241 H   0  0  0  0  0  0  0  0  0  0  0  0
    2.7168   -6.6855    5.6569 H   0  0  0  0  0  0  0  0  0  0  0  0
    2.8458   -4.9896    6.1173 H   0  0  0  0  0  0  0  0  0  0  0  0
    4.3306   -7.5175    3.8661 H   0  0  0  0  0  0  0  0  0  0  0  0
    2.9264   -7.4147    2.9987 H   0  0  0  0  0  0  0  0  0  0  0  0
    4.7171   -8.7251    1.3578 H   0  0  0  0  0  0  0  0  0  0  0  0
    4.7806   -7.6905   -0.1393 H   0  0  0  0  0  0  0  0  0  0  0  0
    7.3042   -7.8866    0.6730 H   0  0  0  0  0  0  0  0  0  0  0  0
    5.4053   -4.2007    5.6110 H   0  0  0  0  0  0  0  0  0  0  0  0
    5.7800   -2.7620    4.7215 H   0  0  0  0  0  0  0  0  0  0  0  0
    3.7413   -1.9764    5.2540 H   0  0  0  0  0  0  0  0  0  0  0  0
    2.0143   -0.7772    2.8753 H   0  0  0  0  0  0  0  0  0  0  0  0
    3.4427    0.2179    2.5533 H   0  0  0  0  0  0  0  0  0  0  0  0
    2.5252   -3.0179    1.1176 H   0  0  0  0  0  0  0  0  0  0  0  0
    4.8356   -0.6044   -0.6617 H   0  0  0  0  0  0  0  0  0  0  0  0
    3.4086   -1.2736   -1.3769 H   0  0  0  0  0  0  0  0  0  0  0  0
    4.9806   -1.7173   -1.9859 H   0  0  0  0  0  0  0  0  0  0  0  0
    3.0881   -3.3500   -1.3589 H   0  0  0  0  0  0  0  0  0  0  0  0
  1  2  1  0
  1 40  1  0
  1 41  1  0
  1 42  1  0
  2 32  1  0
  2  3  1  0
  2 43  1  1
  3 37  1  0
  3  4  1  6
  3  5  1  0
  4 44  1  0
  4 45  1  0
  4 46  1  0
  6  5  1  6
  6 26  1  0
  6 28  1  0
  6  7  1  0
  7  8  2  0
  7  9  1  0
  9 28  1  0
  9 10  1  1
  9 11  1  0
 10 47  1  0
 11 12  1  0
 11 48  1  0
 11 49  1  0
 12 29  1  0
 12 13  1  0
 12 50  1  6
 13 26  1  0
 13 14  1  0
 13 51  1  6
 14 15  2  0
 14 16  1  0
 16 17  1  0
 17 18  1  0
 17 23  1  0
 17 52  1  1
 18 22  2  0
 18 19  1  0
 19 20  2  0
 19 53  1  0
 20 21  1  0
 20 54  1  0
 21 22  1  0
 22 55  1  0
 23 24  1  1
 23 25  1  0
 23 29  1  0
 24 56  1  0
 24 57  1  0
 24 58  1  0
 25 26  1  0
 25 59  1  0
 25 60  1  0
 26 27  1  6
 27 28  1  0
 27 61  1  0
 27 62  1  0
 28 63  1  6
 29 30  1  1
 29 32  1  0
 30 31  1  0
 30 64  1  0
 30 65  1  0
 31 66  1  0
 32 36  1  0
 32 33  1  1
 33 34  1  0
 34 35  1  0
 34 67  1  0
 34 68  1  0
 35 36  1  0
 36 37  1  0
 36 69  1  6
 37 38  1  0
 37 39  1  6
 38 70  1  0
 38 71  1  0
 38 72  1  0
 39 73  1  0
M  END
>  <i_m_ct_stereo_status>  (74) 
1

>  <s_m_source_file>  (74) 
/var/tmp/pbs.5076255.sched01/tmp98udq4tg/0t315e5yz.sdf

>  <i_m_source_file_index>  (74) 
33

>  <i_lp_mmshare_version>  (74) 
48012

>  <i_f3d_flags>  (74) 
0

>  <s_epik_input>  (74) 
W0NIM11bQ0BASF0xW0NAXShPMikoW0NIM10pW0NAQF0oW0NIM10pKFtPSF0pW0NASF0oT1tDSDJdTzMpW0NAQF0xM1tDQF0oW0NIMl1bT0hdKShbQ0BIXShbQ0BIXTRbQ0BAXTU2W0NAQF0yNzgpW0NIMl1bQ0BAXShDNz1PKShbT0hdKVtDQEhdOFtDSDJdNilbQ0BdKFtDSDNdKShbQ0gyXTUpW0NAQEhdKE9DND1PKWM5W2NIXVtjSF1vW2NIXTk=

>  <s_epik_cmdline>  (74) 
J2VwaWtfcHl0aG9uJywgJy1waHQnLCAnMi4wJywgJy1waCcsICc3LjAnLCAnLXRuJywgJzgnLCAnLW1hJywgJzIwMCcsICctaW1hZScsICc8aW5maWxlLm1hZT4nLCAnLW9tYWUnLCAnPG91dGZpbGUubWFlPic=

>  <r_lp_tautomer_probability>  (74) 
1

>  <r_epik_Ionization_Penalty>  (74) 
4.06714e-07

>  <r_epik_Ionization_Penalty_Charging>  (74) 
0

>  <r_epik_Ionization_Penalty_Neutral>  (74) 
4.06714e-07

>  <r_epik_State_Penalty>  (74) 
-0

>  <r_epik_Charging_Adjusted_Penalty>  (74) 
0

>  <i_epik_Tot_Q>  (74) 
0

>  <i_epik_Tot_abs_Q>  (74) 
0

>  <s_epik_Chemistry_Notes>  (74) 
This compound has an ester and may undergo hydrolysis at high or low pH. This compound contains an acetal/aminal-like group ( X-CH(R)-Y where X, Y are N, S, or O) that may be acid/base labile, releasing an aldehyde.

>  <s_lp_Force_Field>  (74) 
OPLS3e

>  <r_lp_Energy>  (74) 
515.619

>  <b_lp_Chiralities_Consistent>  (74) 
1

>  <s_lp_Variant>  (74) 
23:0-1

>  <s_i_glide_gridfile>  (74) 
pfpi4k_grid

>  <i_i_glide_lignum>  (74) 
33

>  <i_i_glide_rotatable_bonds>  (74) 
5

>  <r_i_docking_score>  (74) 
-2.31032

>  <r_i_glide_ligand_efficiency>  (74) 
-0.059239

>  <r_i_glide_ligand_efficiency_sa>  (74) 
-0.200892

>  <r_i_glide_ligand_efficiency_ln>  (74) 
-0.495398

>  <r_i_glide_gscore>  (74) 
-2.31032

>  <r_i_glide_lipo>  (74) 
-0.556619

>  <r_i_glide_hbond>  (74) 
-0.011599

>  <r_i_glide_metal>  (74) 
-0

>  <r_i_glide_rewards>  (74) 
-0.542794

>  <r_i_glide_evdw>  (74) 
-26.5124

>  <r_i_glide_ecoul>  (74) 
0.0848897

>  <r_i_glide_erotb>  (74) 
0.140544

>  <r_i_glide_esite>  (74) 
-0.0269657

>  <r_i_glide_emodel>  (74) 
-34.4306

>  <r_i_glide_energy>  (74) 
-26.4275

>  <r_i_glide_einternal>  (74) 
0.140064

>  <r_i_glide_intrahb_reward>  (74) 
-0.5

>  <i_i_glide_confnum>  (74) 
5

>  <i_i_glide_posenum>  (74) 
21

>  <r_i_glide_eff_state_penalty>  (74) 
0

>  <ligand_id>  (74) 
23

>  <original_smiles>  (74) 
CC1C2(C)OC34C(=O)C5(O)CC6C7C(=O)OC(c8ccoc8)C(C)(CC73CC54)C6(CO)C13OCOC3C2(C)O

>  <smiles>  (74) 
[H]OC([H])([H])C12C3([H])C([H])([H])C4(O[H])C(=O)C5(OC6(C([H])([H])[H])C([H])(C([H])([H])[H])C17OC([H])([H])OC7([H])C6(O[H])C([H])([H])[H])C4([H])C([H])([H])C51C([H])([H])C2(C([H])([H])[H])C([H])(c2c([H])oc([H])c2[H])OC(=O)C31[H]

$$$$
26:0:0
     RDKit          3D

 27 29  0  0  1  0  0  0  0  0999 V2000
    3.5573    0.3319   -4.9470 C   0  0  0  0  0  0  0  0  0  0  0  0
    3.5607   -0.5958   -3.7699 C   0  0  0  0  0  0  0  0  0  0  0  0
    2.8545   -1.8214   -3.6065 C   0  0  0  0  0  0  0  0  0  0  0  0
    3.1276   -2.2399   -2.3323 C   0  0  0  0  0  0  0  0  0  0  0  0
    2.7499   -3.3000   -1.5959 N   0  0  0  0  0  0  0  0  0  0  0  0
    3.2441   -3.4047   -0.3574 C   0  0  0  0  0  0  0  0  0  0  0  0
    2.8295   -4.5910    0.4146 C   0  0  0  0  0  0  0  0  0  0  0  0
    1.8149   -5.5237    0.0637 C   0  0  0  0  0  0  0  0  0  0  0  0
    1.6248   -6.4425    0.9974 N   0  0  0  0  0  0  0  0  0  0  0  0
    2.5701   -6.1789    1.9267 N   0  0  0  0  0  0  0  0  0  0  0  0
    2.6906   -7.0614    3.0671 C   0  0  0  0  0  0  0  0  0  0  0  0
    3.3029   -5.0427    1.6175 C   0  0  0  0  0  0  0  0  0  0  0  0
    4.1205   -2.4433    0.2081 C   0  0  0  0  0  0  0  0  0  0  0  0
    4.4892   -1.3509   -0.5465 C   0  0  0  0  0  0  0  0  0  0  0  0
    4.0072   -1.2717   -1.8141 N   0  0  0  0  0  0  0  0  0  0  0  0
    4.2815   -0.2839   -2.7225 N   0  0  0  0  0  0  0  0  0  0  0  0
    2.9735   -0.0551   -5.7812 H   0  0  0  0  0  0  0  0  0  0  0  0
    4.5738    0.5214   -5.2795 H   0  0  0  0  0  0  0  0  0  0  0  0
    3.1644    1.3189   -4.6896 H   0  0  0  0  0  0  0  0  0  0  0  0
    2.1867   -2.3114   -4.3025 H   0  0  0  0  0  0  0  0  0  0  0  0
    1.1914   -5.5375   -0.8201 H   0  0  0  0  0  0  0  0  0  0  0  0
    3.4640   -6.7010    3.7455 H   0  0  0  0  0  0  0  0  0  0  0  0
    2.9523   -8.0718    2.7424 H   0  0  0  0  0  0  0  0  0  0  0  0
    1.7422   -7.1039    3.6045 H   0  0  0  0  0  0  0  0  0  0  0  0
    4.0771   -4.6648    2.2620 H   0  0  0  0  0  0  0  0  0  0  0  0
    4.5000   -2.5431    1.2180 H   0  0  0  0  0  0  0  0  0  0  0  0
    5.1248   -0.5488   -0.2046 H   0  0  0  0  0  0  0  0  0  0  0  0
  1  2  1  0
  1 17  1  0
  1 18  1  0
  1 19  1  0
  2 16  2  0
  2  3  1  0
  3  4  2  0
  3 20  1  0
  4 15  1  0
  4  5  1  0
  5  6  2  0
  6  7  1  0
  6 13  1  0
  7 12  2  0
  7  8  1  0
  8  9  2  0
  8 21  1  0
  9 10  1  0
 10 11  1  0
 10 12  1  0
 11 22  1  0
 11 23  1  0
 11 24  1  0
 12 25  1  0
 13 14  2  0
 13 26  1  0
 14 15  1  0
 14 27  1  0
 15 16  1  0
M  END
>  <i_m_ct_stereo_status>  (75) 
1

>  <s_m_source_file>  (75) 
/var/tmp/pbs.5076255.sched01/tmp98udq4tg/0t315e5yz.sdf

>  <i_m_source_file_index>  (75) 
37

>  <i_lp_mmshare_version>  (75) 
48012

>  <i_f3d_flags>  (75) 
0

>  <s_epik_input>  (75) 
W0NIM11jKFtjSF0xKW5uKGMxMilbY0hdW2NIXWMobjIpLWMzW2NIXW5uKFtDSDNdKVtjSF0z

>  <s_epik_cmdline>  (75) 
J2VwaWtfcHl0aG9uJywgJy1waHQnLCAnMi4wJywgJy1waCcsICc3LjAnLCAnLXRuJywgJzgnLCAnLW1hJywgJzIwMCcsICctaW1hZScsICc8aW5maWxlLm1hZT4nLCAnLW9tYWUnLCAnPG91dGZpbGUubWFlPic=

>  <r_lp_tautomer_probability>  (75) 
1

>  <r_epik_Ionization_Penalty>  (75) 
0.000128556

>  <r_epik_Ionization_Penalty_Charging>  (75) 
0

>  <r_epik_Ionization_Penalty_Neutral>  (75) 
0.000128556

>  <r_epik_State_Penalty>  (75) 
-0

>  <r_epik_Charging_Adjusted_Penalty>  (75) 
0

>  <i_epik_Tot_Q>  (75) 
0

>  <i_epik_Tot_abs_Q>  (75) 
0

>  <s_lp_Force_Field>  (75) 
OPLS3e

>  <r_lp_Energy>  (75) 
12.1005

>  <b_lp_Chiralities_Consistent>  (75) 
1

>  <s_lp_Variant>  (75) 
26:0-1

>  <s_i_glide_gridfile>  (75) 
pfpi4k_grid

>  <i_i_glide_lignum>  (75) 
37

>  <i_i_glide_rotatable_bonds>  (75) 
1

>  <r_i_docking_score>  (75) 
-3.45677

>  <r_i_glide_ligand_efficiency>  (75) 
-0.216048

>  <r_i_glide_ligand_efficiency_sa>  (75) 
-0.544408

>  <r_i_glide_ligand_efficiency_ln>  (75) 
-0.916287

>  <r_i_glide_gscore>  (75) 
-3.45677

>  <r_i_glide_lipo>  (75) 
-0.626961

>  <r_i_glide_hbond>  (75) 
0

>  <r_i_glide_metal>  (75) 
-0

>  <r_i_glide_rewards>  (75) 
-1.95519

>  <r_i_glide_evdw>  (75) 
-22.3586

>  <r_i_glide_ecoul>  (75) 
-0.0829044

>  <r_i_glide_erotb>  (75) 
0.366797

>  <r_i_glide_esite>  (75) 
-0.111048

>  <r_i_glide_emodel>  (75) 
-27.8648

>  <r_i_glide_energy>  (75) 
-22.4415

>  <r_i_glide_einternal>  (75) 
0.0959319

>  <r_i_glide_intrahb_reward>  (75) 
-0

>  <i_i_glide_confnum>  (75) 
3

>  <i_i_glide_posenum>  (75) 
21

>  <r_i_glide_eff_state_penalty>  (75) 
0

>  <ligand_id>  (75) 
26

>  <original_smiles>  (75) 
Cc1cc2nc(-c3cnn(C)c3)ccn2n1

>  <smiles>  (75) 
[H]c1nn(C([H])([H])[H])c([H])c1-c1nc2c([H])c(C([H])([H])[H])nn2c([H])c1[H]

$$$$
26:0:1
     RDKit          3D

 27 29  0  0  1  0  0  0  0  0999 V2000
    3.2619    0.1813   -4.9866 C   0  0  0  0  0  0  0  0  0  0  0  0
    3.4498   -0.6759   -3.7730 C   0  0  0  0  0  0  0  0  0  0  0  0
    2.8709   -1.9446   -3.4882 C   0  0  0  0  0  0  0  0  0  0  0  0
    3.3214   -2.2877   -2.2384 C   0  0  0  0  0  0  0  0  0  0  0  0
    3.1222   -3.3386   -1.4197 N   0  0  0  0  0  0  0  0  0  0  0  0
    3.7717   -3.3562   -0.2529 C   0  0  0  0  0  0  0  0  0  0  0  0
    3.5438   -4.5367    0.6042 C   0  0  0  0  0  0  0  0  0  0  0  0
    2.5447   -5.5330    0.4397 C   0  0  0  0  0  0  0  0  0  0  0  0
    2.5914   -6.4500    1.3974 N   0  0  0  0  0  0  0  0  0  0  0  0
    3.6297   -6.0797    2.1787 N   0  0  0  0  0  0  0  0  0  0  0  0
    3.9711   -6.9004    3.3250 C   0  0  0  0  0  0  0  0  0  0  0  0
    4.2239   -4.9114    1.7309 C   0  0  0  0  0  0  0  0  0  0  0  0
    4.6390   -2.3098    0.1626 C   0  0  0  0  0  0  0  0  0  0  0  0
    4.8148   -1.2263   -0.6645 C   0  0  0  0  0  0  0  0  0  0  0  0
    4.1688   -1.2307   -1.8581 N   0  0  0  0  0  0  0  0  0  0  0  0
    4.2324   -0.2600   -2.8103 N   0  0  0  0  0  0  0  0  0  0  0  0
    2.5771   -0.2544   -5.7144 H   0  0  0  0  0  0  0  0  0  0  0  0
    4.2084    0.3585   -5.4935 H   0  0  0  0  0  0  0  0  0  0  0  0
    2.8522    1.1573   -4.7290 H   0  0  0  0  0  0  0  0  0  0  0  0
    2.1774   -2.5041   -4.0955 H   0  0  0  0  0  0  0  0  0  0  0  0
    1.7951   -5.6226   -0.3360 H   0  0  0  0  0  0  0  0  0  0  0  0
    4.8158   -6.4712    3.8653 H   0  0  0  0  0  0  0  0  0  0  0  0
    4.2406   -7.9078    3.0041 H   0  0  0  0  0  0  0  0  0  0  0  0
    3.1215   -6.9691    4.0049 H   0  0  0  0  0  0  0  0  0  0  0  0
    5.0628   -4.4642    2.2465 H   0  0  0  0  0  0  0  0  0  0  0  0
    5.1453   -2.3350    1.1210 H   0  0  0  0  0  0  0  0  0  0  0  0
    5.4254   -0.3642   -0.4312 H   0  0  0  0  0  0  0  0  0  0  0  0
  1  2  1  0
  1 17  1  0
  1 18  1  0
  1 19  1  0
  2 16  2  0
  2  3  1  0
  3  4  2  0
  3 20  1  0
  4 15  1  0
  4  5  1  0
  5  6  2  0
  6  7  1  0
  6 13  1  0
  7 12  2  0
  7  8  1  0
  8  9  2  0
  8 21  1  0
  9 10  1  0
 10 11  1  0
 10 12  1  0
 11 22  1  0
 11 23  1  0
 11 24  1  0
 12 25  1  0
 13 14  2  0
 13 26  1  0
 14 15  1  0
 14 27  1  0
 15 16  1  0
M  END
>  <i_m_ct_stereo_status>  (76) 
1

>  <s_m_source_file>  (76) 
/var/tmp/pbs.5076255.sched01/tmp98udq4tg/0t315e5yz.sdf

>  <i_m_source_file_index>  (76) 
37

>  <i_lp_mmshare_version>  (76) 
48012

>  <i_f3d_flags>  (76) 
0

>  <s_epik_input>  (76) 
W0NIM11jKFtjSF0xKW5uKGMxMilbY0hdW2NIXWMobjIpLWMzW2NIXW5uKFtDSDNdKVtjSF0z

>  <s_epik_cmdline>  (76) 
J2VwaWtfcHl0aG9uJywgJy1waHQnLCAnMi4wJywgJy1waCcsICc3LjAnLCAnLXRuJywgJzgnLCAnLW1hJywgJzIwMCcsICctaW1hZScsICc8aW5maWxlLm1hZT4nLCAnLW9tYWUnLCAnPG91dGZpbGUubWFlPic=

>  <r_lp_tautomer_probability>  (76) 
1

>  <r_epik_Ionization_Penalty>  (76) 
0.000128556

>  <r_epik_Ionization_Penalty_Charging>  (76) 
0

>  <r_epik_Ionization_Penalty_Neutral>  (76) 
0.000128556

>  <r_epik_State_Penalty>  (76) 
-0

>  <r_epik_Charging_Adjusted_Penalty>  (76) 
0

>  <i_epik_Tot_Q>  (76) 
0

>  <i_epik_Tot_abs_Q>  (76) 
0

>  <s_lp_Force_Field>  (76) 
OPLS3e

>  <r_lp_Energy>  (76) 
12.1005

>  <b_lp_Chiralities_Consistent>  (76) 
1

>  <s_lp_Variant>  (76) 
26:0-1

>  <s_i_glide_gridfile>  (76) 
pfpi4k_grid

>  <i_i_glide_lignum>  (76) 
37

>  <i_i_glide_rotatable_bonds>  (76) 
1

>  <r_i_docking_score>  (76) 
-3.4168

>  <r_i_glide_ligand_efficiency>  (76) 
-0.21355

>  <r_i_glide_ligand_efficiency_sa>  (76) 
-0.538112

>  <r_i_glide_ligand_efficiency_ln>  (76) 
-0.90569

>  <r_i_glide_gscore>  (76) 
-3.4168

>  <r_i_glide_lipo>  (76) 
-0.586593

>  <r_i_glide_hbond>  (76) 
0

>  <r_i_glide_metal>  (76) 
-0

>  <r_i_glide_rewards>  (76) 
-1.96821

>  <r_i_glide_evdw>  (76) 
-23.5217

>  <r_i_glide_ecoul>  (76) 
0.201548

>  <r_i_glide_erotb>  (76) 
0.366797

>  <r_i_glide_esite>  (76) 
-0.0829371

>  <r_i_glide_emodel>  (76) 
-28.7072

>  <r_i_glide_energy>  (76) 
-23.3201

>  <r_i_glide_einternal>  (76) 
0.132709

>  <r_i_glide_intrahb_reward>  (76) 
-0

>  <i_i_glide_confnum>  (76) 
1

>  <i_i_glide_posenum>  (76) 
3

>  <r_i_glide_eff_state_penalty>  (76) 
0

>  <ligand_id>  (76) 
26

>  <original_smiles>  (76) 
Cc1cc2nc(-c3cnn(C)c3)ccn2n1

>  <smiles>  (76) 
[H]c1nn(C([H])([H])[H])c([H])c1-c1nc2c([H])c(C([H])([H])[H])nn2c([H])c1[H]

$$$$
26:0:2
     RDKit          3D

 27 29  0  0  1  0  0  0  0  0999 V2000
   -0.2504   -8.6605    2.4681 C   0  0  0  0  0  0  0  0  0  0  0  0
    0.7847   -7.7101    1.9419 C   0  0  0  0  0  0  0  0  0  0  0  0
    0.5827   -6.6568    1.0068 C   0  0  0  0  0  0  0  0  0  0  0  0
    1.8142   -6.0753    0.8357 C   0  0  0  0  0  0  0  0  0  0  0  0
    2.2546   -5.0446    0.0890 N   0  0  0  0  0  0  0  0  0  0  0  0
    3.5578   -4.7480    0.1548 C   0  0  0  0  0  0  0  0  0  0  0  0
    4.0269   -3.6196   -0.6822 C   0  0  0  0  0  0  0  0  0  0  0  0
    5.3711   -3.1865   -0.8878 C   0  0  0  0  0  0  0  0  0  0  0  0
    5.4397   -2.1320   -1.6920 N   0  0  0  0  0  0  0  0  0  0  0  0
    4.1564   -1.8719   -2.0237 N   0  0  0  0  0  0  0  0  0  0  0  0
    3.8628   -0.7637   -2.9103 C   0  0  0  0  0  0  0  0  0  0  0  0
    3.2753   -2.7533   -1.4263 C   0  0  0  0  0  0  0  0  0  0  0  0
    4.4664   -5.4690    0.9789 C   0  0  0  0  0  0  0  0  0  0  0  0
    4.0032   -6.5155    1.7387 C   0  0  0  0  0  0  0  0  0  0  0  0
    2.6813   -6.8102    1.6638 N   0  0  0  0  0  0  0  0  0  0  0  0
    2.0315   -7.8027    2.3406 N   0  0  0  0  0  0  0  0  0  0  0  0
   -1.2402   -8.4707    2.0493 H   0  0  0  0  0  0  0  0  0  0  0  0
   -0.3303   -8.5915    3.5538 H   0  0  0  0  0  0  0  0  0  0  0  0
    0.0089   -9.6928    2.2313 H   0  0  0  0  0  0  0  0  0  0  0  0
   -0.3430   -6.4210    0.5095 H   0  0  0  0  0  0  0  0  0  0  0  0
    6.2934   -3.5873   -0.4872 H   0  0  0  0  0  0  0  0  0  0  0  0
    2.7857   -0.6851   -3.0656 H   0  0  0  0  0  0  0  0  0  0  0  0
    4.3480   -0.9132   -3.8758 H   0  0  0  0  0  0  0  0  0  0  0  0
    4.2192    0.1698   -2.4748 H   0  0  0  0  0  0  0  0  0  0  0  0
    2.2060   -2.6826   -1.5741 H   0  0  0  0  0  0  0  0  0  0  0  0
    5.5166   -5.2086    1.0273 H   0  0  0  0  0  0  0  0  0  0  0  0
    4.6138   -7.1181    2.4008 H   0  0  0  0  0  0  0  0  0  0  0  0
  1  2  1  0
  1 17  1  0
  1 18  1  0
  1 19  1  0
  2 16  2  0
  2  3  1  0
  3  4  2  0
  3 20  1  0
  4 15  1  0
  4  5  1  0
  5  6  2  0
  6  7  1  0
  6 13  1  0
  7 12  2  0
  7  8  1  0
  8  9  2  0
  8 21  1  0
  9 10  1  0
 10 11  1  0
 10 12  1  0
 11 22  1  0
 11 23  1  0
 11 24  1  0
 12 25  1  0
 13 14  2  0
 13 26  1  0
 14 15  1  0
 14 27  1  0
 15 16  1  0
M  END
>  <i_m_ct_stereo_status>  (77) 
1

>  <s_m_source_file>  (77) 
/var/tmp/pbs.5076255.sched01/tmp98udq4tg/0t315e5yz.sdf

>  <i_m_source_file_index>  (77) 
37

>  <i_lp_mmshare_version>  (77) 
48012

>  <i_f3d_flags>  (77) 
0

>  <s_epik_input>  (77) 
W0NIM11jKFtjSF0xKW5uKGMxMilbY0hdW2NIXWMobjIpLWMzW2NIXW5uKFtDSDNdKVtjSF0z

>  <s_epik_cmdline>  (77) 
J2VwaWtfcHl0aG9uJywgJy1waHQnLCAnMi4wJywgJy1waCcsICc3LjAnLCAnLXRuJywgJzgnLCAnLW1hJywgJzIwMCcsICctaW1hZScsICc8aW5maWxlLm1hZT4nLCAnLW9tYWUnLCAnPG91dGZpbGUubWFlPic=

>  <r_lp_tautomer_probability>  (77) 
1

>  <r_epik_Ionization_Penalty>  (77) 
0.000128556

>  <r_epik_Ionization_Penalty_Charging>  (77) 
0

>  <r_epik_Ionization_Penalty_Neutral>  (77) 
0.000128556

>  <r_epik_State_Penalty>  (77) 
-0

>  <r_epik_Charging_Adjusted_Penalty>  (77) 
0

>  <i_epik_Tot_Q>  (77) 
0

>  <i_epik_Tot_abs_Q>  (77) 
0

>  <s_lp_Force_Field>  (77) 
OPLS3e

>  <r_lp_Energy>  (77) 
12.1005

>  <b_lp_Chiralities_Consistent>  (77) 
1

>  <s_lp_Variant>  (77) 
26:0-1

>  <s_i_glide_gridfile>  (77) 
pfpi4k_grid

>  <i_i_glide_lignum>  (77) 
37

>  <i_i_glide_rotatable_bonds>  (77) 
1

>  <r_i_docking_score>  (77) 
-3.21807

>  <r_i_glide_ligand_efficiency>  (77) 
-0.201129

>  <r_i_glide_ligand_efficiency_sa>  (77) 
-0.506814

>  <r_i_glide_ligand_efficiency_ln>  (77) 
-0.853013

>  <r_i_glide_gscore>  (77) 
-3.21807

>  <r_i_glide_lipo>  (77) 
-0.228748

>  <r_i_glide_hbond>  (77) 
-0.00155002

>  <r_i_glide_metal>  (77) 
-0

>  <r_i_glide_rewards>  (77) 
-1.95519

>  <r_i_glide_evdw>  (77) 
-22.6814

>  <r_i_glide_ecoul>  (77) 
-1.22915

>  <r_i_glide_erotb>  (77) 
0.366797

>  <r_i_glide_esite>  (77) 
-0.0809286

>  <r_i_glide_emodel>  (77) 
-29.0632

>  <r_i_glide_energy>  (77) 
-23.9106

>  <r_i_glide_einternal>  (77) 
0.0819672

>  <r_i_glide_intrahb_reward>  (77) 
-0

>  <i_i_glide_confnum>  (77) 
2

>  <i_i_glide_posenum>  (77) 
28

>  <r_i_glide_eff_state_penalty>  (77) 
0

>  <ligand_id>  (77) 
26

>  <original_smiles>  (77) 
Cc1cc2nc(-c3cnn(C)c3)ccn2n1

>  <smiles>  (77) 
[H]c1nn(C([H])([H])[H])c([H])c1-c1nc2c([H])c(C([H])([H])[H])nn2c([H])c1[H]

$$$$
27:0:0
     RDKit          3D

 23 25  0  0  1  0  0  0  0  0999 V2000
   -1.5231   -8.8584    2.3747 C   0  0  0  0  0  0  0  0  0  0  0  0
   -0.8297   -7.8144    3.1835 C   0  0  0  0  0  0  0  0  0  0  0  0
   -0.1924   -6.7315    2.6283 N   0  0  0  0  0  0  0  0  0  0  0  0
    0.2738   -6.1600    3.7353 C   0  0  0  0  0  0  0  0  0  0  0  0
   -0.0776   -6.8111    4.8503 N   0  0  0  0  0  0  0  0  0  0  0  0
   -0.8304   -7.8801    4.5178 N   0  0  0  0  0  0  0  0  0  0  0  0
    0.2219   -6.3811    6.2098 C   0  0  2  0  0  0  0  0  0  0  0  0
   -0.5733   -5.1291    6.5040 C   0  0  0  0  0  0  0  0  0  0  0  0
    0.0552   -4.0641    5.9951 C   0  0  0  0  0  0  0  0  0  0  0  0
    1.3518   -4.4919    5.3359 C   0  0  2  0  0  0  0  0  0  0  0  0
    1.0946   -4.8901    3.8481 C   0  0  0  0  0  0  0  0  0  0  0  0
    1.6374   -5.7747    6.1508 C   0  0  0  0  0  0  0  0  0  0  0  0
   -1.4243   -8.6488    1.3101 H   0  0  0  0  0  0  0  0  0  0  0  0
   -2.5833   -8.8835    2.6269 H   0  0  0  0  0  0  0  0  0  0  0  0
   -1.1017   -9.8462    2.5687 H   0  0  0  0  0  0  0  0  0  0  0  0
    0.1094   -7.1807    6.9396 H   0  0  0  0  0  0  0  0  0  0  0  0
   -1.5193   -5.1312    7.0243 H   0  0  0  0  0  0  0  0  0  0  0  0
   -0.2875   -3.0401    6.0240 H   0  0  0  0  0  0  0  0  0  0  0  0
    2.1288   -3.7353    5.4475 H   0  0  0  0  0  0  0  0  0  0  0  0
    2.0510   -5.0685    3.3535 H   0  0  0  0  0  0  0  0  0  0  0  0
    0.6030   -4.0812    3.3055 H   0  0  0  0  0  0  0  0  0  0  0  0
    1.9905   -5.5218    7.1523 H   0  0  0  0  0  0  0  0  0  0  0  0
    2.3775   -6.4309    5.6908 H   0  0  0  0  0  0  0  0  0  0  0  0
  1  2  1  0
  1 13  1  0
  1 14  1  0
  1 15  1  0
  2  6  2  0
  2  3  1  0
  3  4  2  0
  4 11  1  0
  4  5  1  0
  5  6  1  0
  5  7  1  0
  7 12  1  0
  7  8  1  0
  7 16  1  1
  8  9  2  0
  8 17  1  0
  9 10  1  0
  9 18  1  0
 10 11  1  0
 10 12  1  0
 10 19  1  6
 11 20  1  0
 11 21  1  0
 12 22  1  0
 12 23  1  0
M  END
>  <i_m_ct_stereo_status>  (78) 
1

>  <s_m_source_file>  (78) 
/var/tmp/pbs.5076255.sched01/tmp98udq4tg/0t315e5yz.sdf

>  <i_m_source_file_index>  (78) 
38

>  <i_lp_mmshare_version>  (78) 
48012

>  <i_f3d_flags>  (78) 
0

>  <s_epik_input>  (78) 
W0NIM11jKG4xKW5uKGMxMilbQ0BASF0zW0NIXT1bQ0hdW0NASF0oW0NIMl0yKVtDSDJdMw==

>  <s_epik_cmdline>  (78) 
J2VwaWtfcHl0aG9uJywgJy1waHQnLCAnMi4wJywgJy1waCcsICc3LjAnLCAnLXRuJywgJzgnLCAnLW1hJywgJzIwMCcsICctaW1hZScsICc8aW5maWxlLm1hZT4nLCAnLW9tYWUnLCAnPG91dGZpbGUubWFlPic=

>  <r_lp_tautomer_probability>  (78) 
1

>  <r_epik_Ionization_Penalty>  (78) 
0.0032935

>  <r_epik_Ionization_Penalty_Charging>  (78) 
0

>  <r_epik_Ionization_Penalty_Neutral>  (78) 
0.0032935

>  <r_epik_State_Penalty>  (78) 
0.00232716

>  <r_epik_Charging_Adjusted_Penalty>  (78) 
0.00232716

>  <i_epik_Tot_Q>  (78) 
0

>  <i_epik_Tot_abs_Q>  (78) 
0

>  <s_lp_Force_Field>  (78) 
OPLS3e

>  <r_lp_Energy>  (78) 
15.6046

>  <b_lp_Chiralities_Consistent>  (78) 
1

>  <s_lp_Variant>  (78) 
27:0-1

>  <s_i_glide_gridfile>  (78) 
pfpi4k_grid

>  <i_i_glide_lignum>  (78) 
38

>  <i_i_glide_rotatable_bonds>  (78) 
0

>  <r_i_docking_score>  (78) 
-3.89302

>  <r_i_glide_ligand_efficiency>  (78) 
-0.324418

>  <r_i_glide_ligand_efficiency_sa>  (78) 
-0.742732

>  <r_i_glide_ligand_efficiency_ln>  (78) 
-1.11711

>  <r_i_glide_gscore>  (78) 
-3.89302

>  <r_i_glide_lipo>  (78) 
-0.256926

>  <r_i_glide_hbond>  (78) 
-0.16

>  <r_i_glide_metal>  (78) 
-0

>  <r_i_glide_rewards>  (78) 
-2.25

>  <r_i_glide_evdw>  (78) 
-13.1168

>  <r_i_glide_ecoul>  (78) 
-2.90447

>  <r_i_glide_erotb>  (78) 
0

>  <r_i_glide_esite>  (78) 
-0.134579

>  <r_i_glide_emodel>  (78) 
-20.2622

>  <r_i_glide_energy>  (78) 
-16.0213

>  <r_i_glide_einternal>  (78) 
0

>  <r_i_glide_intrahb_reward>  (78) 
-0

>  <i_i_glide_confnum>  (78) 
2

>  <i_i_glide_posenum>  (78) 
6

>  <r_i_glide_eff_state_penalty>  (78) 
0

>  <ligand_id>  (78) 
27

>  <original_smiles>  (78) 
Cc1nc2n(n1)C1C=CC(C2)C1

>  <smiles>  (78) 
[H]C1=C([H])C2([H])C([H])([H])c3nc(C([H])([H])[H])nn3C1([H])C2([H])[H]

$$$$
27:0:1
     RDKit          3D

 23 25  0  0  1  0  0  0  0  0999 V2000
   -0.6458   -2.1993    6.0420 C   0  0  0  0  0  0  0  0  0  0  0  0
   -0.9818   -0.8122    5.6104 C   0  0  0  0  0  0  0  0  0  0  0  0
   -1.4259    0.1476    6.4792 N   0  0  0  0  0  0  0  0  0  0  0  0
   -1.5656    1.1681    5.6403 C   0  0  0  0  0  0  0  0  0  0  0  0
   -1.2804    0.8370    4.3760 N   0  0  0  0  0  0  0  0  0  0  0  0
   -0.8774   -0.4504    4.3292 N   0  0  0  0  0  0  0  0  0  0  0  0
   -1.3156    1.7512    3.2434 C   0  0  2  0  0  0  0  0  0  0  0  0
   -0.2031    2.7573    3.4093 C   0  0  0  0  0  0  0  0  0  0  0  0
   -0.5898    3.7338    4.2378 C   0  0  0  0  0  0  0  0  0  0  0  0
   -2.0133    3.4912    4.6898 C   0  0  2  0  0  0  0  0  0  0  0  0
   -2.0188    2.5814    5.9598 C   0  0  0  0  0  0  0  0  0  0  0  0
   -2.5238    2.6762    3.4828 C   0  0  0  0  0  0  0  0  0  0  0  0
   -0.7884   -2.3178    7.1120 H   0  0  0  0  0  0  0  0  0  0  0  0
    0.3941   -2.4279    5.8135 H   0  0  0  0  0  0  0  0  0  0  0  0
   -1.2894   -2.9140    5.5355 H   0  0  0  0  0  0  0  0  0  0  0  0
   -1.3214    1.2371    2.2861 H   0  0  0  0  0  0  0  0  0  0  0  0
    0.7559    2.6743    2.9208 H   0  0  0  0  0  0  0  0  0  0  0  0
    0.0102    4.5774    4.5460 H   0  0  0  0  0  0  0  0  0  0  0  0
   -2.5506    4.4267    4.8279 H   0  0  0  0  0  0  0  0  0  0  0  0
   -3.0375    2.5224    6.3482 H   0  0  0  0  0  0  0  0  0  0  0  0
   -1.3871    3.0016    6.7469 H   0  0  0  0  0  0  0  0  0  0  0  0
   -2.6864    3.3173    2.6160 H   0  0  0  0  0  0  0  0  0  0  0  0
   -3.4577    2.1505    3.6838 H   0  0  0  0  0  0  0  0  0  0  0  0
  1  2  1  0
  1 13  1  0
  1 14  1  0
  1 15  1  0
  2  6  2  0
  2  3  1  0
  3  4  2  0
  4 11  1  0
  4  5  1  0
  5  6  1  0
  5  7  1  0
  7 12  1  0
  7  8  1  0
  7 16  1  6
  8  9  2  0
  8 17  1  0
  9 10  1  0
  9 18  1  0
 10 11  1  0
 10 12  1  0
 10 19  1  1
 11 20  1  0
 11 21  1  0
 12 22  1  0
 12 23  1  0
M  END
>  <i_m_ct_stereo_status>  (79) 
1

>  <s_m_source_file>  (79) 
/var/tmp/pbs.5076255.sched01/tmp98udq4tg/0t315e5yz.sdf

>  <i_m_source_file_index>  (79) 
38

>  <i_lp_mmshare_version>  (79) 
48012

>  <i_f3d_flags>  (79) 
0

>  <s_epik_input>  (79) 
W0NIM11jKG4xKW5uKGMxMilbQ0BASF0zW0NIXT1bQ0hdW0NASF0oW0NIMl0yKVtDSDJdMw==

>  <s_epik_cmdline>  (79) 
J2VwaWtfcHl0aG9uJywgJy1waHQnLCAnMi4wJywgJy1waCcsICc3LjAnLCAnLXRuJywgJzgnLCAnLW1hJywgJzIwMCcsICctaW1hZScsICc8aW5maWxlLm1hZT4nLCAnLW9tYWUnLCAnPG91dGZpbGUubWFlPic=

>  <r_lp_tautomer_probability>  (79) 
1

>  <r_epik_Ionization_Penalty>  (79) 
0.0032935

>  <r_epik_Ionization_Penalty_Charging>  (79) 
0

>  <r_epik_Ionization_Penalty_Neutral>  (79) 
0.0032935

>  <r_epik_State_Penalty>  (79) 
0.00232716

>  <r_epik_Charging_Adjusted_Penalty>  (79) 
0.00232716

>  <i_epik_Tot_Q>  (79) 
0

>  <i_epik_Tot_abs_Q>  (79) 
0

>  <s_lp_Force_Field>  (79) 
OPLS3e

>  <r_lp_Energy>  (79) 
15.6046

>  <b_lp_Chiralities_Consistent>  (79) 
1

>  <s_lp_Variant>  (79) 
27:0-1

>  <s_i_glide_gridfile>  (79) 
pfpi4k_grid

>  <i_i_glide_lignum>  (79) 
38

>  <i_i_glide_rotatable_bonds>  (79) 
0

>  <r_i_docking_score>  (79) 
-3.49363

>  <r_i_glide_ligand_efficiency>  (79) 
-0.291136

>  <r_i_glide_ligand_efficiency_sa>  (79) 
-0.666535

>  <r_i_glide_ligand_efficiency_ln>  (79) 
-1.0025

>  <r_i_glide_gscore>  (79) 
-3.49363

>  <r_i_glide_lipo>  (79) 
-0.0637922

>  <r_i_glide_hbond>  (79) 
-0.16

>  <r_i_glide_metal>  (79) 
-0

>  <r_i_glide_rewards>  (79) 
-2.25

>  <r_i_glide_evdw>  (79) 
-12.5366

>  <r_i_glide_ecoul>  (79) 
-1.91258

>  <r_i_glide_erotb>  (79) 
0

>  <r_i_glide_esite>  (79) 
-0.106121

>  <r_i_glide_emodel>  (79) 
-18.2573

>  <r_i_glide_energy>  (79) 
-14.4492

>  <r_i_glide_einternal>  (79) 
0

>  <r_i_glide_intrahb_reward>  (79) 
-0

>  <i_i_glide_confnum>  (79) 
2

>  <i_i_glide_posenum>  (79) 
15

>  <r_i_glide_eff_state_penalty>  (79) 
0

>  <ligand_id>  (79) 
27

>  <original_smiles>  (79) 
Cc1nc2n(n1)C1C=CC(C2)C1

>  <smiles>  (79) 
[H]C1=C([H])C2([H])C([H])([H])c3nc(C([H])([H])[H])nn3C1([H])C2([H])[H]

$$$$
27:0:2
     RDKit          3D

 23 25  0  0  1  0  0  0  0  0999 V2000
   -1.1804   -2.3443    5.8931 C   0  0  0  0  0  0  0  0  0  0  0  0
   -1.0419   -0.9600    5.3633 C   0  0  0  0  0  0  0  0  0  0  0  0
   -0.3802   -0.6715    4.1993 N   0  0  0  0  0  0  0  0  0  0  0  0
   -0.5334    0.6453    4.1716 C   0  0  0  0  0  0  0  0  0  0  0  0
   -1.2052    1.1106    5.2345 N   0  0  0  0  0  0  0  0  0  0  0  0
   -1.5777    0.0756    6.0225 N   0  0  0  0  0  0  0  0  0  0  0  0
   -1.5448    2.5094    5.4668 C   0  0  2  0  0  0  0  0  0  0  0  0
   -2.5624    2.9405    4.4341 C   0  0  0  0  0  0  0  0  0  0  0  0
   -1.9448    3.2459    3.2893 C   0  0  0  0  0  0  0  0  0  0  0  0
   -0.4463    3.0901    3.4523 C   0  0  2  0  0  0  0  0  0  0  0  0
   -0.0239    1.6219    3.1275 C   0  0  0  0  0  0  0  0  0  0  0  0
   -0.3299    3.3202    4.9748 C   0  0  0  0  0  0  0  0  0  0  0  0
   -0.6894   -3.0527    5.2306 H   0  0  0  0  0  0  0  0  0  0  0  0
   -2.2309   -2.6164    5.9700 H   0  0  0  0  0  0  0  0  0  0  0  0
   -0.7157   -2.4270    6.8734 H   0  0  0  0  0  0  0  0  0  0  0  0
   -1.8280    2.7114    6.4976 H   0  0  0  0  0  0  0  0  0  0  0  0
   -3.6278    2.9447    4.6089 H   0  0  0  0  0  0  0  0  0  0  0  0
   -2.4194    3.5326    2.3627 H   0  0  0  0  0  0  0  0  0  0  0  0
    0.0985    3.8383    2.8813 H   0  0  0  0  0  0  0  0  0  0  0  0
    1.0674    1.5632    3.1224 H   0  0  0  0  0  0  0  0  0  0  0  0
   -0.3742    1.3169    2.1382 H   0  0  0  0  0  0  0  0  0  0  0  0
   -0.4549    4.3801    5.2068 H   0  0  0  0  0  0  0  0  0  0  0  0
    0.6247    2.9959    5.3925 H   0  0  0  0  0  0  0  0  0  0  0  0
  1  2  1  0
  1 13  1  0
  1 14  1  0
  1 15  1  0
  2  6  2  0
  2  3  1  0
  3  4  2  0
  4 11  1  0
  4  5  1  0
  5  6  1  0
  5  7  1  0
  7 12  1  0
  7  8  1  0
  7 16  1  1
  8  9  2  0
  8 17  1  0
  9 10  1  0
  9 18  1  0
 10 11  1  0
 10 12  1  0
 10 19  1  6
 11 20  1  0
 11 21  1  0
 12 22  1  0
 12 23  1  0
M  END
>  <i_m_ct_stereo_status>  (80) 
1

>  <s_m_source_file>  (80) 
/var/tmp/pbs.5076255.sched01/tmp98udq4tg/0t315e5yz.sdf

>  <i_m_source_file_index>  (80) 
38

>  <i_lp_mmshare_version>  (80) 
48012

>  <i_f3d_flags>  (80) 
0

>  <s_epik_input>  (80) 
W0NIM11jKG4xKW5uKGMxMilbQ0BASF0zW0NIXT1bQ0hdW0NASF0oW0NIMl0yKVtDSDJdMw==

>  <s_epik_cmdline>  (80) 
J2VwaWtfcHl0aG9uJywgJy1waHQnLCAnMi4wJywgJy1waCcsICc3LjAnLCAnLXRuJywgJzgnLCAnLW1hJywgJzIwMCcsICctaW1hZScsICc8aW5maWxlLm1hZT4nLCAnLW9tYWUnLCAnPG91dGZpbGUubWFlPic=

>  <r_lp_tautomer_probability>  (80) 
1

>  <r_epik_Ionization_Penalty>  (80) 
0.0032935

>  <r_epik_Ionization_Penalty_Charging>  (80) 
0

>  <r_epik_Ionization_Penalty_Neutral>  (80) 
0.0032935

>  <r_epik_State_Penalty>  (80) 
0.00232716

>  <r_epik_Charging_Adjusted_Penalty>  (80) 
0.00232716

>  <i_epik_Tot_Q>  (80) 
0

>  <i_epik_Tot_abs_Q>  (80) 
0

>  <s_lp_Force_Field>  (80) 
OPLS3e

>  <r_lp_Energy>  (80) 
15.6046

>  <b_lp_Chiralities_Consistent>  (80) 
1

>  <s_lp_Variant>  (80) 
27:0-1

>  <s_i_glide_gridfile>  (80) 
pfpi4k_grid

>  <i_i_glide_lignum>  (80) 
38

>  <i_i_glide_rotatable_bonds>  (80) 
0

>  <r_i_docking_score>  (80) 
-3.2295

>  <r_i_glide_ligand_efficiency>  (80) 
-0.269125

>  <r_i_glide_ligand_efficiency_sa>  (80) 
-0.616143

>  <r_i_glide_ligand_efficiency_ln>  (80) 
-0.926711

>  <r_i_glide_gscore>  (80) 
-3.2295

>  <r_i_glide_lipo>  (80) 
-0.0215878

>  <r_i_glide_hbond>  (80) 
-0.104432

>  <r_i_glide_metal>  (80) 
-0

>  <r_i_glide_rewards>  (80) 
-2.25

>  <r_i_glide_evdw>  (80) 
-13.8577

>  <r_i_glide_ecoul>  (80) 
-0.536283

>  <r_i_glide_erotb>  (80) 
0

>  <r_i_glide_esite>  (80) 
-0.0801541

>  <r_i_glide_emodel>  (80) 
-17.916

>  <r_i_glide_energy>  (80) 
-14.394

>  <r_i_glide_einternal>  (80) 
0

>  <r_i_glide_intrahb_reward>  (80) 
-0

>  <i_i_glide_confnum>  (80) 
2

>  <i_i_glide_posenum>  (80) 
13

>  <r_i_glide_eff_state_penalty>  (80) 
0

>  <ligand_id>  (80) 
27

>  <original_smiles>  (80) 
Cc1nc2n(n1)C1C=CC(C2)C1

>  <smiles>  (80) 
[H]C1=C([H])C2([H])C([H])([H])c3nc(C([H])([H])[H])nn3C1([H])C2([H])[H]

$$$$
28:0:0
     RDKit          3D

 54 58  0  0  1  0  0  0  0  0999 V2000
    2.1902    5.2831    3.3390 C   0  0  0  0  0  0  0  0  0  0  0  0
    2.4427    3.8842    3.3717 O   0  0  0  0  0  0  0  0  0  0  0  0
    1.3757    3.0155    3.4843 C   0  0  0  0  0  0  0  0  0  0  0  0
    0.0395    3.4464    3.6844 C   0  0  0  0  0  0  0  0  0  0  0  0
   -1.0090    2.5156    3.7555 C   0  0  0  0  0  0  0  0  0  0  0  0
   -0.7390    1.1396    3.6795 C   0  0  0  0  0  0  0  0  0  0  0  0
    0.5873    0.6851    3.5263 C   0  0  0  0  0  0  0  0  0  0  0  0
    1.6431    1.6262    3.3991 C   0  0  0  0  0  0  0  0  0  0  0  0
    3.0776    1.1760    3.1233 C   0  0  0  0  0  0  0  0  0  0  0  0
    3.3469   -0.3063    3.4299 C   0  0  2  0  0  0  0  0  0  0  0  0
    4.7587   -0.7385    2.9758 C   0  0  0  0  0  0  0  0  0  0  0  0
    5.7107   -0.0230    3.2874 O   0  0  0  0  0  0  0  0  0  0  0  0
    4.9316   -1.8952    2.2857 N   0  0  0  0  0  0  0  0  0  0  0  0
    6.2145   -2.2887    1.6927 C   0  0  0  0  0  0  0  0  0  0  0  0
    6.1603   -2.5386    0.1893 C   0  0  0  0  0  0  0  0  0  0  0  0
    7.5355   -2.6642   -0.7214 S   0  0  0  0  0  0  0  0  0  0  0  0
    4.9241   -2.7345   -0.3486 O   0  0  0  0  0  0  0  0  0  0  0  0
    3.7101   -2.4103    0.3279 C   0  0  1  0  0  0  0  0  0  0  0  0
    2.5940   -3.1596   -0.3891 C   0  0  0  0  0  0  0  0  0  0  0  0
    3.8527   -2.7688    1.8240 C   0  0  2  0  0  0  0  0  0  0  0  0
    2.5956   -2.6629    2.7286 C   0  0  1  0  0  0  0  0  0  0  0  0
    2.8786   -3.3992    4.0634 C   0  0  0  0  0  0  0  0  0  0  0  0
    2.2022   -1.1670    2.8695 C   0  0  1  0  0  0  0  0  0  0  0  0
    0.8479   -0.8174    3.5403 C   0  0  1  0  0  0  0  0  0  0  0  0
    0.6405   -1.3461    4.9307 C   0  0  0  0  0  0  0  0  0  0  0  0
   -0.1204   -2.3589    5.4542 C   0  0  0  0  0  0  0  0  0  0  0  0
    0.1408   -2.3768    6.8549 C   0  0  0  0  0  0  0  0  0  0  0  0
    1.0109   -1.3491    7.0868 C   0  0  0  0  0  0  0  0  0  0  0  0
    1.3270   -0.7196    5.9269 O   0  0  0  0  0  0  0  0  0  0  0  0
    3.1342    5.8209    3.2494 H   0  0  0  0  0  0  0  0  0  0  0  0
    1.7069    5.6291    4.2534 H   0  0  0  0  0  0  0  0  0  0  0  0
    1.5737    5.5467    2.4800 H   0  0  0  0  0  0  0  0  0  0  0  0
   -0.1979    4.4955    3.7421 H   0  0  0  0  0  0  0  0  0  0  0  0
   -2.0259    2.8611    3.8673 H   0  0  0  0  0  0  0  0  0  0  0  0
   -1.5544    0.4367    3.7437 H   0  0  0  0  0  0  0  0  0  0  0  0
    3.2705    1.3630    2.0657 H   0  0  0  0  0  0  0  0  0  0  0  0
    3.7802    1.7992    3.6774 H   0  0  0  0  0  0  0  0  0  0  0  0
    3.3654   -0.4219    4.5103 H   0  0  0  0  0  0  0  0  0  0  0  0
    6.9920   -1.5444    1.8733 H   0  0  0  0  0  0  0  0  0  0  0  0
    6.5312   -3.2218    2.1615 H   0  0  0  0  0  0  0  0  0  0  0  0
    3.5375   -1.3392    0.2050 H   0  0  0  0  0  0  0  0  0  0  0  0
    1.6523   -2.8411    0.0323 H   0  0  0  0  0  0  0  0  0  0  0  0
    2.6677   -4.2428   -0.2907 H   0  0  0  0  0  0  0  0  0  0  0  0
    2.5662   -2.9102   -1.4493 H   0  0  0  0  0  0  0  0  0  0  0  0
    4.1915   -3.8079    1.8731 H   0  0  0  0  0  0  0  0  0  0  0  0
    1.7775   -3.1992    2.2488 H   0  0  0  0  0  0  0  0  0  0  0  0
    3.5551   -2.8366    4.7114 H   0  0  0  0  0  0  0  0  0  0  0  0
    3.3292   -4.3775    3.8842 H   0  0  0  0  0  0  0  0  0  0  0  0
    1.9663   -3.6027    4.6184 H   0  0  0  0  0  0  0  0  0  0  0  0
    2.0637   -0.8240    1.8426 H   0  0  0  0  0  0  0  0  0  0  0  0
    0.0948   -1.2677    2.9038 H   0  0  0  0  0  0  0  0  0  0  0  0
   -0.7476   -3.0292    4.8826 H   0  0  0  0  0  0  0  0  0  0  0  0
   -0.2383   -3.0570    7.6059 H   0  0  0  0  0  0  0  0  0  0  0  0
    1.5031   -0.9641    7.9667 H   0  0  0  0  0  0  0  0  0  0  0  0
  1  2  1  0
  1 30  1  0
  1 31  1  0
  1 32  1  0
  2  3  1  0
  3  8  2  0
  3  4  1  0
  4  5  2  0
  4 33  1  0
  5  6  1  0
  5 34  1  0
  6  7  2  0
  6 35  1  0
  7 24  1  0
  7  8  1  0
  8  9  1  0
  9 10  1  0
  9 36  1  0
  9 37  1  0
 10 23  1  0
 10 11  1  0
 10 38  1  1
 11 12  2  0
 11 13  1  0
 13 20  1  0
 13 14  1  0
 14 15  1  0
 14 39  1  0
 14 40  1  0
 15 16  2  0
 15 17  1  0
 17 18  1  0
 18 19  1  0
 18 20  1  0
 18 41  1  1
 19 42  1  0
 19 43  1  0
 19 44  1  0
 20 21  1  0
 20 45  1  6
 21 22  1  0
 21 23  1  0
 21 46  1  6
 22 47  1  0
 22 48  1  0
 22 49  1  0
 23 24  1  0
 23 50  1  6
 24 25  1  0
 24 51  1  6
 25 29  1  0
 25 26  2  0
 26 27  1  0
 26 52  1  0
 27 28  2  0
 27 53  1  0
 28 29  1  0
 28 54  1  0
M  END
>  <i_m_ct_stereo_status>  (81) 
1

>  <s_m_source_file>  (81) 
/var/tmp/pbs.5076255.sched01/tmpmmp70uc3/38qnywpnyg.sdf

>  <i_m_source_file_index>  (81) 
1

>  <i_lp_mmshare_version>  (81) 
48012

>  <i_f3d_flags>  (81) 
0

>  <s_epik_input>  (81) 
W2NIXTFbY0hdW2NIXWMoT1tDSDNdKWMoYzEyKVtDSDJdW0NASF0zW0NASF0oW0NASF0yYzRbY0hdW2NIXVtjSF1vNClbQ0BIXShbQ0gzXSlbQ0BASF01TihDMz1PKVtDSDJdQyg9UylPW0NASF01W0NIM10=

>  <s_epik_cmdline>  (81) 
J2VwaWtfcHl0aG9uJywgJy1waHQnLCAnMi4wJywgJy1waCcsICc3LjAnLCAnLXRuJywgJzgnLCAnLW1hJywgJzIwMCcsICctaW1hZScsICc8aW5maWxlLm1hZT4nLCAnLW9tYWUnLCAnPG91dGZpbGUubWFlPic=

>  <r_lp_tautomer_probability>  (81) 
1

>  <r_epik_Ionization_Penalty>  (81) 
2.10075e-11

>  <r_epik_Ionization_Penalty_Charging>  (81) 
0

>  <r_epik_Ionization_Penalty_Neutral>  (81) 
2.10075e-11

>  <r_epik_State_Penalty>  (81) 
-0

>  <r_epik_Charging_Adjusted_Penalty>  (81) 
0

>  <i_epik_Tot_Q>  (81) 
0

>  <i_epik_Tot_abs_Q>  (81) 
0

>  <s_lp_Force_Field>  (81) 
OPLS3e

>  <r_lp_Energy>  (81) 
56.8041

>  <b_lp_Chiralities_Consistent>  (81) 
1

>  <s_lp_Variant>  (81) 
28:0-1

>  <s_i_glide_gridfile>  (81) 
pfpi4k_grid

>  <i_i_glide_lignum>  (81) 
1

>  <i_i_glide_rotatable_bonds>  (81) 
2

>  <r_i_docking_score>  (81) 
-2.78824

>  <r_i_glide_ligand_efficiency>  (81) 
-0.0961463

>  <r_i_glide_ligand_efficiency_sa>  (81) 
-0.295392

>  <r_i_glide_ligand_efficiency_ln>  (81) 
-0.638437

>  <r_i_glide_gscore>  (81) 
-2.78824

>  <r_i_glide_lipo>  (81) 
-0.088845

>  <r_i_glide_hbond>  (81) 
-0.0696159

>  <r_i_glide_metal>  (81) 
-0

>  <r_i_glide_rewards>  (81) 
-0.877185

>  <r_i_glide_evdw>  (81) 
-27.2067

>  <r_i_glide_ecoul>  (81) 
-3.21421

>  <r_i_glide_erotb>  (81) 
0.116392

>  <r_i_glide_esite>  (81) 
-0.0265201

>  <r_i_glide_emodel>  (81) 
-35.0722

>  <r_i_glide_energy>  (81) 
-30.4209

>  <r_i_glide_einternal>  (81) 
0.0954256

>  <r_i_glide_intrahb_reward>  (81) 
-0

>  <i_i_glide_confnum>  (81) 
1

>  <i_i_glide_posenum>  (81) 
38

>  <r_i_glide_eff_state_penalty>  (81) 
0

>  <ligand_id>  (81) 
28

>  <original_smiles>  (81) 
COc1cccc2c1CC1C(=O)N3CC(=S)OC(C)C3C(C)C1C2c1ccco1

>  <smiles>  (81) 
[H]c1oc(C2([H])c3c([H])c([H])c([H])c(OC([H])([H])[H])c3C([H])([H])C3([H])C(=O)N4C([H])([H])C(=S)OC([H])(C([H])([H])[H])C4([H])C([H])(C([H])([H])[H])C23[H])c([H])c1[H]

$$$$
28:0:1
     RDKit          3D

 54 58  0  0  1  0  0  0  0  0999 V2000
    1.9732    5.0717    3.3293 C   0  0  0  0  0  0  0  0  0  0  0  0
    2.2803    3.6853    3.3425 O   0  0  0  0  0  0  0  0  0  0  0  0
    1.2437    2.7808    3.4603 C   0  0  0  0  0  0  0  0  0  0  0  0
   -0.1086    3.1615    3.6764 C   0  0  0  0  0  0  0  0  0  0  0  0
   -1.1238    2.1923    3.7640 C   0  0  0  0  0  0  0  0  0  0  0  0
   -0.8051    0.8247    3.6810 C   0  0  0  0  0  0  0  0  0  0  0  0
    0.5386    0.4216    3.5109 C   0  0  0  0  0  0  0  0  0  0  0  0
    1.5574    1.3979    3.3657 C   0  0  0  0  0  0  0  0  0  0  0  0
    3.0026    0.9985    3.0792 C   0  0  0  0  0  0  0  0  0  0  0  0
    3.3258   -0.4758    3.3800 C   0  0  2  0  0  0  0  0  0  0  0  0
    4.7428   -0.8657    2.9070 C   0  0  0  0  0  0  0  0  0  0  0  0
    5.6671   -0.1181    3.2196 O   0  0  0  0  0  0  0  0  0  0  0  0
    4.9474   -2.0057    2.2078 N   0  0  0  0  0  0  0  0  0  0  0  0
    6.2334   -2.3535    1.5949 C   0  0  0  0  0  0  0  0  0  0  0  0
    6.1669   -2.5979    0.1011 C   0  0  0  0  0  0  0  0  0  0  0  0
    7.5433   -2.6560   -0.8260 S   0  0  0  0  0  0  0  0  0  0  0  0
    4.9380   -2.8317   -0.4133 O   0  0  0  0  0  0  0  0  0  0  0  0
    3.7118   -2.5555    0.2659 C   0  0  1  0  0  0  0  0  0  0  0  0
    2.6204   -3.3469   -0.4535 C   0  0  0  0  0  0  0  0  0  0  0  0
    3.8986   -2.9117    1.7516 C   0  0  2  0  0  0  0  0  0  0  0  0
    2.6524   -2.8583    2.6771 C   0  0  1  0  0  0  0  0  0  0  0  0
    3.0066   -3.5940    3.9968 C   0  0  0  0  0  0  0  0  0  0  0  0
    2.2077   -1.3781    2.8402 C   0  0  1  0  0  0  0  0  0  0  0  0
    0.8532   -1.0682    3.5264 C   0  0  1  0  0  0  0  0  0  0  0  0
    0.6408   -1.5937    4.9163 C   0  0  0  0  0  0  0  0  0  0  0  0
    0.8789   -1.0813    6.1552 C   0  0  0  0  0  0  0  0  0  0  0  0
    0.4996   -2.0905    7.0954 C   0  0  0  0  0  0  0  0  0  0  0  0
    0.0507   -3.1355    6.3531 C   0  0  0  0  0  0  0  0  0  0  0  0
    0.0623   -2.8252    5.0250 O   0  0  0  0  0  0  0  0  0  0  0  0
    2.8965    5.6406    3.2293 H   0  0  0  0  0  0  0  0  0  0  0  0
    1.4898    5.3927    4.2518 H   0  0  0  0  0  0  0  0  0  0  0  0
    1.3384    5.3299    2.4783 H   0  0  0  0  0  0  0  0  0  0  0  0
   -0.3875    4.2039    3.7478 H   0  0  0  0  0  0  0  0  0  0  0  0
   -2.1560    2.4978    3.8949 H   0  0  0  0  0  0  0  0  0  0  0  0
   -1.5927    0.0909    3.7595 H   0  0  0  0  0  0  0  0  0  0  0  0
    3.1755    1.1953    2.0204 H   0  0  0  0  0  0  0  0  0  0  0  0
    3.6913    1.6466    3.6195 H   0  0  0  0  0  0  0  0  0  0  0  0
    3.3438   -0.5944    4.4613 H   0  0  0  0  0  0  0  0  0  0  0  0
    6.9892   -1.5856    1.7670 H   0  0  0  0  0  0  0  0  0  0  0  0
    6.5964   -3.2660    2.0638 H   0  0  0  0  0  0  0  0  0  0  0  0
    3.5077   -1.4918    0.1422 H   0  0  0  0  0  0  0  0  0  0  0  0
    1.6651   -3.0565   -0.0462 H   0  0  0  0  0  0  0  0  0  0  0  0
    2.7363   -4.4269   -0.3526 H   0  0  0  0  0  0  0  0  0  0  0  0
    2.5807   -3.0987   -1.5134 H   0  0  0  0  0  0  0  0  0  0  0  0
    4.2727   -3.9377    1.7908 H   0  0  0  0  0  0  0  0  0  0  0  0
    1.8422   -3.4225    2.2121 H   0  0  0  0  0  0  0  0  0  0  0  0
    3.6621   -3.0024    4.6401 H   0  0  0  0  0  0  0  0  0  0  0  0
    3.5034   -4.5454    3.7985 H   0  0  0  0  0  0  0  0  0  0  0  0
    2.1350   -3.8726    4.5776 H   0  0  0  0  0  0  0  0  0  0  0  0
    2.0409   -1.0383    1.8161 H   0  0  0  0  0  0  0  0  0  0  0  0
    0.1249   -1.5494    2.8921 H   0  0  0  0  0  0  0  0  0  0  0  0
    1.2854   -0.0991    6.3590 H   0  0  0  0  0  0  0  0  0  0  0  0
    0.5706   -2.0624    8.1758 H   0  0  0  0  0  0  0  0  0  0  0  0
   -0.2913   -4.1353    6.5907 H   0  0  0  0  0  0  0  0  0  0  0  0
  1  2  1  0
  1 30  1  0
  1 31  1  0
  1 32  1  0
  2  3  1  0
  3  8  2  0
  3  4  1  0
  4  5  2  0
  4 33  1  0
  5  6  1  0
  5 34  1  0
  6  7  2  0
  6 35  1  0
  7 24  1  0
  7  8  1  0
  8  9  1  0
  9 10  1  0
  9 36  1  0
  9 37  1  0
 10 23  1  0
 10 11  1  0
 10 38  1  1
 11 12  2  0
 11 13  1  0
 13 20  1  0
 13 14  1  0
 14 15  1  0
 14 39  1  0
 14 40  1  0
 15 16  2  0
 15 17  1  0
 17 18  1  0
 18 19  1  0
 18 20  1  0
 18 41  1  1
 19 42  1  0
 19 43  1  0
 19 44  1  0
 20 21  1  0
 20 45  1  6
 21 22  1  0
 21 23  1  0
 21 46  1  6
 22 47  1  0
 22 48  1  0
 22 49  1  0
 23 24  1  0
 23 50  1  6
 24 25  1  0
 24 51  1  6
 25 29  1  0
 25 26  2  0
 26 27  1  0
 26 52  1  0
 27 28  2  0
 27 53  1  0
 28 29  1  0
 28 54  1  0
M  END
>  <i_m_ct_stereo_status>  (82) 
1

>  <s_m_source_file>  (82) 
/var/tmp/pbs.5076255.sched01/tmpmmp70uc3/38qnywpnyg.sdf

>  <i_m_source_file_index>  (82) 
1

>  <i_lp_mmshare_version>  (82) 
48012

>  <i_f3d_flags>  (82) 
0

>  <s_epik_input>  (82) 
W2NIXTFbY0hdW2NIXWMoT1tDSDNdKWMoYzEyKVtDSDJdW0NASF0zW0NASF0oW0NASF0yYzRbY0hdW2NIXVtjSF1vNClbQ0BIXShbQ0gzXSlbQ0BASF01TihDMz1PKVtDSDJdQyg9UylPW0NASF01W0NIM10=

>  <s_epik_cmdline>  (82) 
J2VwaWtfcHl0aG9uJywgJy1waHQnLCAnMi4wJywgJy1waCcsICc3LjAnLCAnLXRuJywgJzgnLCAnLW1hJywgJzIwMCcsICctaW1hZScsICc8aW5maWxlLm1hZT4nLCAnLW9tYWUnLCAnPG91dGZpbGUubWFlPic=

>  <r_lp_tautomer_probability>  (82) 
1

>  <r_epik_Ionization_Penalty>  (82) 
2.10075e-11

>  <r_epik_Ionization_Penalty_Charging>  (82) 
0

>  <r_epik_Ionization_Penalty_Neutral>  (82) 
2.10075e-11

>  <r_epik_State_Penalty>  (82) 
-0

>  <r_epik_Charging_Adjusted_Penalty>  (82) 
0

>  <i_epik_Tot_Q>  (82) 
0

>  <i_epik_Tot_abs_Q>  (82) 
0

>  <s_lp_Force_Field>  (82) 
OPLS3e

>  <r_lp_Energy>  (82) 
56.8041

>  <b_lp_Chiralities_Consistent>  (82) 
1

>  <s_lp_Variant>  (82) 
28:0-1

>  <s_i_glide_gridfile>  (82) 
pfpi4k_grid

>  <i_i_glide_lignum>  (82) 
1

>  <i_i_glide_rotatable_bonds>  (82) 
2

>  <r_i_docking_score>  (82) 
-2.69235

>  <r_i_glide_ligand_efficiency>  (82) 
-0.0928397

>  <r_i_glide_ligand_efficiency_sa>  (82) 
-0.285233

>  <r_i_glide_ligand_efficiency_ln>  (82) 
-0.61648

>  <r_i_glide_gscore>  (82) 
-2.69235

>  <r_i_glide_lipo>  (82) 
-0.0912185

>  <r_i_glide_hbond>  (82) 
-0.053983

>  <r_i_glide_metal>  (82) 
-0

>  <r_i_glide_rewards>  (82) 
-0.853043

>  <r_i_glide_evdw>  (82) 
-27.7058

>  <r_i_glide_ecoul>  (82) 
-2.60661

>  <r_i_glide_erotb>  (82) 
0.116392

>  <r_i_glide_esite>  (82) 
-0.0342184

>  <r_i_glide_emodel>  (82) 
-34.506

>  <r_i_glide_energy>  (82) 
-30.3124

>  <r_i_glide_einternal>  (82) 
0.417682

>  <r_i_glide_intrahb_reward>  (82) 
-0

>  <i_i_glide_confnum>  (82) 
2

>  <i_i_glide_posenum>  (82) 
23

>  <r_i_glide_eff_state_penalty>  (82) 
0

>  <ligand_id>  (82) 
28

>  <original_smiles>  (82) 
COc1cccc2c1CC1C(=O)N3CC(=S)OC(C)C3C(C)C1C2c1ccco1

>  <smiles>  (82) 
[H]c1oc(C2([H])c3c([H])c([H])c([H])c(OC([H])([H])[H])c3C([H])([H])C3([H])C(=O)N4C([H])([H])C(=S)OC([H])(C([H])([H])[H])C4([H])C([H])(C([H])([H])[H])C23[H])c([H])c1[H]

$$$$
28:0:2
     RDKit          3D

 54 58  0  0  1  0  0  0  0  0999 V2000
   -1.6245    2.8841    3.0774 C   0  0  0  0  0  0  0  0  0  0  0  0
   -0.6362    1.8746    2.9263 O   0  0  0  0  0  0  0  0  0  0  0  0
   -0.6956    0.7657    3.7425 C   0  0  0  0  0  0  0  0  0  0  0  0
   -1.7010    0.5803    4.7236 C   0  0  0  0  0  0  0  0  0  0  0  0
   -1.7461   -0.5918    5.4885 C   0  0  0  0  0  0  0  0  0  0  0  0
   -0.7529   -1.5757    5.3485 C   0  0  0  0  0  0  0  0  0  0  0  0
    0.2851   -1.3911    4.4118 C   0  0  0  0  0  0  0  0  0  0  0  0
    0.2945   -0.2395    3.5832 C   0  0  0  0  0  0  0  0  0  0  0  0
    1.3361   -0.0579    2.4806 C   0  0  0  0  0  0  0  0  0  0  0  0
    2.5742   -0.9592    2.6296 C   0  0  2  0  0  0  0  0  0  0  0  0
    3.5044   -0.8625    1.4006 C   0  0  0  0  0  0  0  0  0  0  0  0
    3.8084    0.2575    0.9978 O   0  0  0  0  0  0  0  0  0  0  0  0
    4.0061   -1.9793    0.8235 N   0  0  0  0  0  0  0  0  0  0  0  0
    4.7617   -1.9613   -0.4368 C   0  0  0  0  0  0  0  0  0  0  0  0
    4.1368   -2.8244   -1.5263 C   0  0  0  0  0  0  0  0  0  0  0  0
    4.5707   -2.6717   -3.1274 S   0  0  0  0  0  0  0  0  0  0  0  0
    3.2754   -3.7861   -1.1101 O   0  0  0  0  0  0  0  0  0  0  0  0
    2.6270   -3.7833    0.1637 C   0  0  1  0  0  0  0  0  0  0  0  0
    2.0513   -5.1915    0.3680 C   0  0  0  0  0  0  0  0  0  0  0  0
    3.6612   -3.3458    1.2102 C   0  0  2  0  0  0  0  0  0  0  0  0
    3.2557   -3.4398    2.7020 C   0  0  1  0  0  0  0  0  0  0  0  0
    4.5484   -3.3004    3.5465 C   0  0  0  0  0  0  0  0  0  0  0  0
    2.1448   -2.3900    2.9922 C   0  0  1  0  0  0  0  0  0  0  0  0
    1.3848   -2.4440    4.3490 C   0  0  1  0  0  0  0  0  0  0  0  0
    2.2155   -2.3402    5.5980 C   0  0  0  0  0  0  0  0  0  0  0  0
    2.6028   -1.2967    6.3862 C   0  0  0  0  0  0  0  0  0  0  0  0
    3.4281   -1.8482    7.4147 C   0  0  0  0  0  0  0  0  0  0  0  0
    3.4734   -3.1842    7.1730 C   0  0  0  0  0  0  0  0  0  0  0  0
    2.6787   -3.5111    6.1165 O   0  0  0  0  0  0  0  0  0  0  0  0
   -1.4218    3.6933    2.3829 H   0  0  0  0  0  0  0  0  0  0  0  0
   -1.6115    3.3164    4.0773 H   0  0  0  0  0  0  0  0  0  0  0  0
   -2.6201    2.5004    2.8570 H   0  0  0  0  0  0  0  0  0  0  0  0
   -2.4685    1.3254    4.8791 H   0  0  0  0  0  0  0  0  0  0  0  0
   -2.5581   -0.7244    6.1842 H   0  0  0  0  0  0  0  0  0  0  0  0
   -0.7724   -2.4634    5.9633 H   0  0  0  0  0  0  0  0  0  0  0  0
    0.8338   -0.2790    1.5399 H   0  0  0  0  0  0  0  0  0  0  0  0
    1.6392    0.9865    2.4111 H   0  0  0  0  0  0  0  0  0  0  0  0
    3.1599   -0.5751    3.4605 H   0  0  0  0  0  0  0  0  0  0  0  0
    4.8899   -0.9538   -0.8267 H   0  0  0  0  0  0  0  0  0  0  0  0
    5.7626   -2.3351   -0.2277 H   0  0  0  0  0  0  0  0  0  0  0  0
    1.8166   -3.0622    0.0902 H   0  0  0  0  0  0  0  0  0  0  0  0
    1.4579   -5.2413    1.2779 H   0  0  0  0  0  0  0  0  0  0  0  0
    2.8338   -5.9479    0.4365 H   0  0  0  0  0  0  0  0  0  0  0  0
    1.4048   -5.4666   -0.4658 H   0  0  0  0  0  0  0  0  0  0  0  0
    4.5392   -3.9839    1.0766 H   0  0  0  0  0  0  0  0  0  0  0  0
    2.8557   -4.4372    2.8956 H   0  0  0  0  0  0  0  0  0  0  0  0
    4.9087   -2.2703    3.5842 H   0  0  0  0  0  0  0  0  0  0  0  0
    5.3501   -3.9204    3.1415 H   0  0  0  0  0  0  0  0  0  0  0  0
    4.4319   -3.6547    4.5653 H   0  0  0  0  0  0  0  0  0  0  0  0
    1.3635   -2.6258    2.2718 H   0  0  0  0  0  0  0  0  0  0  0  0
    0.8896   -3.4108    4.3792 H   0  0  0  0  0  0  0  0  0  0  0  0
    2.3296   -0.2612    6.2394 H   0  0  0  0  0  0  0  0  0  0  0  0
    3.9371   -1.3357    8.2207 H   0  0  0  0  0  0  0  0  0  0  0  0
    3.9972   -4.0145    7.6317 H   0  0  0  0  0  0  0  0  0  0  0  0
  1  2  1  0
  1 30  1  0
  1 31  1  0
  1 32  1  0
  2  3  1  0
  3  8  2  0
  3  4  1  0
  4  5  2  0
  4 33  1  0
  5  6  1  0
  5 34  1  0
  6  7  2  0
  6 35  1  0
  7 24  1  0
  7  8  1  0
  8  9  1  0
  9 10  1  0
  9 36  1  0
  9 37  1  0
 10 23  1  0
 10 11  1  0
 10 38  1  1
 11 12  2  0
 11 13  1  0
 13 20  1  0
 13 14  1  0
 14 15  1  0
 14 39  1  0
 14 40  1  0
 15 16  2  0
 15 17  1  0
 17 18  1  0
 18 19  1  0
 18 20  1  0
 18 41  1  6
 19 42  1  0
 19 43  1  0
 19 44  1  0
 20 21  1  0
 20 45  1  1
 21 22  1  0
 21 23  1  0
 21 46  1  6
 22 47  1  0
 22 48  1  0
 22 49  1  0
 23 24  1  0
 23 50  1  6
 24 25  1  0
 24 51  1  1
 25 29  1  0
 25 26  2  0
 26 27  1  0
 26 52  1  0
 27 28  2  0
 27 53  1  0
 28 29  1  0
 28 54  1  0
M  END
>  <i_m_ct_stereo_status>  (83) 
1

>  <s_m_source_file>  (83) 
/var/tmp/pbs.5076255.sched01/tmpmmp70uc3/38qnywpnyg.sdf

>  <i_m_source_file_index>  (83) 
1

>  <i_lp_mmshare_version>  (83) 
48012

>  <i_f3d_flags>  (83) 
0

>  <s_epik_input>  (83) 
W2NIXTFbY0hdW2NIXWMoT1tDSDNdKWMoYzEyKVtDSDJdW0NASF0zW0NASF0oW0NASF0yYzRbY0hdW2NIXVtjSF1vNClbQ0BIXShbQ0gzXSlbQ0BASF01TihDMz1PKVtDSDJdQyg9UylPW0NASF01W0NIM10=

>  <s_epik_cmdline>  (83) 
J2VwaWtfcHl0aG9uJywgJy1waHQnLCAnMi4wJywgJy1waCcsICc3LjAnLCAnLXRuJywgJzgnLCAnLW1hJywgJzIwMCcsICctaW1hZScsICc8aW5maWxlLm1hZT4nLCAnLW9tYWUnLCAnPG91dGZpbGUubWFlPic=

>  <r_lp_tautomer_probability>  (83) 
1

>  <r_epik_Ionization_Penalty>  (83) 
2.10075e-11

>  <r_epik_Ionization_Penalty_Charging>  (83) 
0

>  <r_epik_Ionization_Penalty_Neutral>  (83) 
2.10075e-11

>  <r_epik_State_Penalty>  (83) 
-0

>  <r_epik_Charging_Adjusted_Penalty>  (83) 
0

>  <i_epik_Tot_Q>  (83) 
0

>  <i_epik_Tot_abs_Q>  (83) 
0

>  <s_lp_Force_Field>  (83) 
OPLS3e

>  <r_lp_Energy>  (83) 
56.8041

>  <b_lp_Chiralities_Consistent>  (83) 
1

>  <s_lp_Variant>  (83) 
28:0-1

>  <s_i_glide_gridfile>  (83) 
pfpi4k_grid

>  <i_i_glide_lignum>  (83) 
1

>  <i_i_glide_rotatable_bonds>  (83) 
2

>  <r_i_docking_score>  (83) 
-2.17251

>  <r_i_glide_ligand_efficiency>  (83) 
-0.0749143

>  <r_i_glide_ligand_efficiency_sa>  (83) 
-0.23016

>  <r_i_glide_ligand_efficiency_ln>  (83) 
-0.49745

>  <r_i_glide_gscore>  (83) 
-2.17251

>  <r_i_glide_lipo>  (83) 
-0.0274421

>  <r_i_glide_hbond>  (83) 
0

>  <r_i_glide_metal>  (83) 
-0

>  <r_i_glide_rewards>  (83) 
-0.765644

>  <r_i_glide_evdw>  (83) 
-30.0338

>  <r_i_glide_ecoul>  (83) 
0.383478

>  <r_i_glide_erotb>  (83) 
0.116392

>  <r_i_glide_esite>  (83) 
-0.0516493

>  <r_i_glide_emodel>  (83) 
-32.9403

>  <r_i_glide_energy>  (83) 
-29.6503

>  <r_i_glide_einternal>  (83) 
0.335804

>  <r_i_glide_intrahb_reward>  (83) 
-0

>  <i_i_glide_confnum>  (83) 
3

>  <i_i_glide_posenum>  (83) 
26

>  <r_i_glide_eff_state_penalty>  (83) 
0

>  <ligand_id>  (83) 
28

>  <original_smiles>  (83) 
COc1cccc2c1CC1C(=O)N3CC(=S)OC(C)C3C(C)C1C2c1ccco1

>  <smiles>  (83) 
[H]c1oc(C2([H])c3c([H])c([H])c([H])c(OC([H])([H])[H])c3C([H])([H])C3([H])C(=O)N4C([H])([H])C(=S)OC([H])(C([H])([H])[H])C4([H])C([H])(C([H])([H])[H])C23[H])c([H])c1[H]

$$$$
29:0:0
     RDKit          3D

 30 31  0  0  1  0  0  0  0  0999 V2000
    2.4930    0.9822    2.2016 C   0  0  0  0  0  0  0  0  0  0  0  0
    2.6052   -0.4238    2.0643 O   0  0  0  0  0  0  0  0  0  0  0  0
    3.5702   -0.9616    1.2778 C   0  0  0  0  0  0  0  0  0  0  0  0
    4.4550   -0.3105    0.7295 O   0  0  0  0  0  0  0  0  0  0  0  0
    3.4394   -2.4420    1.1221 C   0  0  0  0  0  0  0  0  0  0  0  0
    2.8988   -3.1474    2.2329 C   0  0  0  0  0  0  0  0  0  0  0  0
    2.7821   -4.4845    2.2979 N   0  0  0  0  0  0  0  0  0  0  0  0
    3.2013   -5.1990    1.2420 C   0  0  0  0  0  0  0  0  0  0  0  0
    3.7280   -4.6098    0.0728 C   0  0  0  0  0  0  0  0  0  0  0  0
    3.8400   -3.2081   -0.0084 C   0  0  0  0  0  0  0  0  0  0  0  0
    4.3136   -2.6427   -1.2335 N   0  0  0  0  0  0  0  0  0  0  0  0
    3.7192   -1.4464   -1.8079 C   0  0  0  0  0  0  0  0  0  0  0  0
    3.1851   -1.7064   -3.2230 C   0  0  0  0  0  0  0  0  0  0  0  0
    4.2140   -2.2568   -4.0440 O   0  0  0  0  0  0  0  0  0  0  0  0
    4.6860   -3.4941   -3.5270 C   0  0  0  0  0  0  0  0  0  0  0  0
    5.2687   -3.3161   -2.1024 C   0  0  0  0  0  0  0  0  0  0  0  0
    1.7347    1.2307    2.9493 H   0  0  0  0  0  0  0  0  0  0  0  0
    2.1937    1.4128    1.2472 H   0  0  0  0  0  0  0  0  0  0  0  0
    3.4380    1.4345    2.5024 H   0  0  0  0  0  0  0  0  0  0  0  0
    2.5848   -2.6425    3.1320 H   0  0  0  0  0  0  0  0  0  0  0  0
    3.0998   -6.2708    1.3241 H   0  0  0  0  0  0  0  0  0  0  0  0
    4.0062   -5.2691   -0.7270 H   0  0  0  0  0  0  0  0  0  0  0  0
    2.8814   -1.0936   -1.2103 H   0  0  0  0  0  0  0  0  0  0  0  0
    4.4778   -0.6536   -1.8398 H   0  0  0  0  0  0  0  0  0  0  0  0
    2.3200   -2.3710   -3.2030 H   0  0  0  0  0  0  0  0  0  0  0  0
    2.8366   -0.7649   -3.6479 H   0  0  0  0  0  0  0  0  0  0  0  0
    3.8714   -4.2132   -3.5265 H   0  0  0  0  0  0  0  0  0  0  0  0
    5.4489   -3.8839   -4.2001 H   0  0  0  0  0  0  0  0  0  0  0  0
    6.1718   -2.6997   -2.1544 H   0  0  0  0  0  0  0  0  0  0  0  0
    5.6031   -4.2783   -1.7080 H   0  0  0  0  0  0  0  0  0  0  0  0
  1  2  1  0
  1 17  1  0
  1 18  1  0
  1 19  1  0
  2  3  1  0
  3  4  2  0
  3  5  1  0
  5 10  2  0
  5  6  1  0
  6  7  2  0
  6 20  1  0
  7  8  1  0
  8  9  2  0
  8 21  1  0
  9 10  1  0
  9 22  1  0
 10 11  1  0
 11 16  1  0
 11 12  1  0
 12 13  1  0
 12 23  1  0
 12 24  1  0
 13 14  1  0
 13 25  1  0
 13 26  1  0
 14 15  1  0
 15 16  1  0
 15 27  1  0
 15 28  1  0
 16 29  1  0
 16 30  1  0
M  END
>  <i_m_ct_stereo_status>  (84) 
1

>  <s_m_source_file>  (84) 
/var/tmp/pbs.5076255.sched01/tmpmmp70uc3/38qnywpnyg.sdf

>  <i_m_source_file_index>  (84) 
2

>  <i_lp_mmshare_version>  (84) 
48012

>  <i_f3d_flags>  (84) 
0

>  <s_epik_input>  (84) 
W0NIM11PQyg9TyljMVtjSF1uW2NIXVtjSF1jMU4yW0NIMl1bQ0gyXU9bQ0gyXVtDSDJdMg==

>  <s_epik_cmdline>  (84) 
J2VwaWtfcHl0aG9uJywgJy1waHQnLCAnMi4wJywgJy1waCcsICc3LjAnLCAnLXRuJywgJzgnLCAnLW1hJywgJzIwMCcsICctaW1hZScsICc8aW5maWxlLm1hZT4nLCAnLW9tYWUnLCAnPG91dGZpbGUubWFlPic=

>  <r_epik_Ionization_Penalty>  (84) 
0.156672

>  <r_epik_Ionization_Penalty_Charging>  (84) 
0

>  <r_epik_Ionization_Penalty_Neutral>  (84) 
0.156672

>  <r_epik_State_Penalty>  (84) 
0.145971

>  <r_epik_Charging_Adjusted_Penalty>  (84) 
0.145971

>  <i_epik_Tot_Q>  (84) 
0

>  <i_epik_Tot_abs_Q>  (84) 
0

>  <s_epik_Chemistry_Notes>  (84) 
This compound has an ester and may undergo hydrolysis at high or low pH.

>  <s_lp_Force_Field>  (84) 
OPLS3e

>  <r_lp_Energy>  (84) 
25.6946

>  <b_lp_Chiralities_Consistent>  (84) 
1

>  <s_lp_Variant>  (84) 
29:0-1

>  <s_i_glide_gridfile>  (84) 
pfpi4k_grid

>  <i_i_glide_lignum>  (84) 
2

>  <i_i_glide_rotatable_bonds>  (84) 
3

>  <r_i_docking_score>  (84) 
-3.63034

>  <r_i_glide_ligand_efficiency>  (84) 
-0.226896

>  <r_i_glide_ligand_efficiency_sa>  (84) 
-0.571743

>  <r_i_glide_ligand_efficiency_ln>  (84) 
-0.962294

>  <r_i_glide_gscore>  (84) 
-3.63034

>  <r_i_glide_lipo>  (84) 
-0.436898

>  <r_i_glide_hbond>  (84) 
-0.266266

>  <r_i_glide_metal>  (84) 
-0

>  <r_i_glide_rewards>  (84) 
-1.89382

>  <r_i_glide_evdw>  (84) 
-23.6017

>  <r_i_glide_ecoul>  (84) 
-3.34605

>  <r_i_glide_erotb>  (84) 
0.684215

>  <r_i_glide_esite>  (84) 
-0.0355826

>  <r_i_glide_emodel>  (84) 
-32.5014

>  <r_i_glide_energy>  (84) 
-26.9478

>  <r_i_glide_einternal>  (84) 
0.755384

>  <r_i_glide_intrahb_reward>  (84) 
-0

>  <i_i_glide_confnum>  (84) 
6

>  <i_i_glide_posenum>  (84) 
27

>  <r_i_glide_eff_state_penalty>  (84) 
0

>  <ligand_id>  (84) 
29

>  <original_smiles>  (84) 
COC(=O)c1cnccc1N1CCOCC1

>  <smiles>  (84) 
[H]c1nc([H])c(C(=O)OC([H])([H])[H])c(N2C([H])([H])C([H])([H])OC([H])([H])C2([H])[H])c1[H]

$$$$
29:0:1
     RDKit          3D

 30 31  0  0  1  0  0  0  0  0999 V2000
    8.2361   -5.1802    1.2824 C   0  0  0  0  0  0  0  0  0  0  0  0
    7.4249   -4.0211    1.2719 O   0  0  0  0  0  0  0  0  0  0  0  0
    6.1836   -4.0867    0.7530 C   0  0  0  0  0  0  0  0  0  0  0  0
    5.6974   -5.1164    0.3049 O   0  0  0  0  0  0  0  0  0  0  0  0
    5.4752   -2.7557    0.7641 C   0  0  0  0  0  0  0  0  0  0  0  0
    5.8276   -1.8446    1.7862 C   0  0  0  0  0  0  0  0  0  0  0  0
    5.2386   -0.6512    2.0048 N   0  0  0  0  0  0  0  0  0  0  0  0
    4.2455   -0.2948    1.1683 C   0  0  0  0  0  0  0  0  0  0  0  0
    3.8214   -1.1035    0.0997 C   0  0  0  0  0  0  0  0  0  0  0  0
    4.4409   -2.3486   -0.1272 C   0  0  0  0  0  0  0  0  0  0  0  0
    4.0283   -3.1052   -1.2383 N   0  0  0  0  0  0  0  0  0  0  0  0
    4.9899   -3.6836   -2.1626 C   0  0  0  0  0  0  0  0  0  0  0  0
    4.7309   -3.1962   -3.5905 C   0  0  0  0  0  0  0  0  0  0  0  0
    3.3802   -3.4324   -3.9650 O   0  0  0  0  0  0  0  0  0  0  0  0
    2.4633   -2.7439   -3.1209 C   0  0  0  0  0  0  0  0  0  0  0  0
    2.6343   -3.2134   -1.6541 C   0  0  0  0  0  0  0  0  0  0  0  0
    9.1675   -4.9604    1.8071 H   0  0  0  0  0  0  0  0  0  0  0  0
    8.4695   -5.4867    0.2617 H   0  0  0  0  0  0  0  0  0  0  0  0
    7.7376   -6.0104    1.7894 H   0  0  0  0  0  0  0  0  0  0  0  0
    6.6058   -2.0680    2.4965 H   0  0  0  0  0  0  0  0  0  0  0  0
    3.7996    0.6763    1.3617 H   0  0  0  0  0  0  0  0  0  0  0  0
    3.0314   -0.7393   -0.5339 H   0  0  0  0  0  0  0  0  0  0  0  0
    6.0095   -3.4170   -1.8961 H   0  0  0  0  0  0  0  0  0  0  0  0
    4.8894   -4.7710   -2.1399 H   0  0  0  0  0  0  0  0  0  0  0  0
    4.9742   -2.1383   -3.6823 H   0  0  0  0  0  0  0  0  0  0  0  0
    5.3913   -3.7491   -4.2555 H   0  0  0  0  0  0  0  0  0  0  0  0
    2.6165   -1.6713   -3.2118 H   0  0  0  0  0  0  0  0  0  0  0  0
    1.4537   -2.9525   -3.4727 H   0  0  0  0  0  0  0  0  0  0  0  0
    2.3339   -4.2588   -1.5728 H   0  0  0  0  0  0  0  0  0  0  0  0
    1.9688   -2.6770   -0.9775 H   0  0  0  0  0  0  0  0  0  0  0  0
  1  2  1  0
  1 17  1  0
  1 18  1  0
  1 19  1  0
  2  3  1  0
  3  4  2  0
  3  5  1  0
  5 10  2  0
  5  6  1  0
  6  7  2  0
  6 20  1  0
  7  8  1  0
  8  9  2  0
  8 21  1  0
  9 10  1  0
  9 22  1  0
 10 11  1  0
 11 16  1  0
 11 12  1  0
 12 13  1  0
 12 23  1  0
 12 24  1  0
 13 14  1  0
 13 25  1  0
 13 26  1  0
 14 15  1  0
 15 16  1  0
 15 27  1  0
 15 28  1  0
 16 29  1  0
 16 30  1  0
M  END
>  <i_m_ct_stereo_status>  (85) 
1

>  <s_m_source_file>  (85) 
/var/tmp/pbs.5076255.sched01/tmpmmp70uc3/38qnywpnyg.sdf

>  <i_m_source_file_index>  (85) 
2

>  <i_lp_mmshare_version>  (85) 
48012

>  <i_f3d_flags>  (85) 
0

>  <s_epik_input>  (85) 
W0NIM11PQyg9TyljMVtjSF1uW2NIXVtjSF1jMU4yW0NIMl1bQ0gyXU9bQ0gyXVtDSDJdMg==

>  <s_epik_cmdline>  (85) 
J2VwaWtfcHl0aG9uJywgJy1waHQnLCAnMi4wJywgJy1waCcsICc3LjAnLCAnLXRuJywgJzgnLCAnLW1hJywgJzIwMCcsICctaW1hZScsICc8aW5maWxlLm1hZT4nLCAnLW9tYWUnLCAnPG91dGZpbGUubWFlPic=

>  <r_epik_Ionization_Penalty>  (85) 
0.156672

>  <r_epik_Ionization_Penalty_Charging>  (85) 
0

>  <r_epik_Ionization_Penalty_Neutral>  (85) 
0.156672

>  <r_epik_State_Penalty>  (85) 
0.145971

>  <r_epik_Charging_Adjusted_Penalty>  (85) 
0.145971

>  <i_epik_Tot_Q>  (85) 
0

>  <i_epik_Tot_abs_Q>  (85) 
0

>  <s_epik_Chemistry_Notes>  (85) 
This compound has an ester and may undergo hydrolysis at high or low pH.

>  <s_lp_Force_Field>  (85) 
OPLS3e

>  <r_lp_Energy>  (85) 
25.6946

>  <b_lp_Chiralities_Consistent>  (85) 
1

>  <s_lp_Variant>  (85) 
29:0-1

>  <s_i_glide_gridfile>  (85) 
pfpi4k_grid

>  <i_i_glide_lignum>  (85) 
2

>  <i_i_glide_rotatable_bonds>  (85) 
3

>  <r_i_docking_score>  (85) 
-3.53393

>  <r_i_glide_ligand_efficiency>  (85) 
-0.220871

>  <r_i_glide_ligand_efficiency_sa>  (85) 
-0.556559

>  <r_i_glide_ligand_efficiency_ln>  (85) 
-0.936738

>  <r_i_glide_gscore>  (85) 
-3.53393

>  <r_i_glide_lipo>  (85) 
-0.821258

>  <r_i_glide_hbond>  (85) 
0

>  <r_i_glide_metal>  (85) 
-0

>  <r_i_glide_rewards>  (85) 
-2.01897

>  <r_i_glide_evdw>  (85) 
-23.1886

>  <r_i_glide_ecoul>  (85) 
-1.3913

>  <r_i_glide_erotb>  (85) 
0.684215

>  <r_i_glide_esite>  (85) 
-0.00978886

>  <r_i_glide_emodel>  (85) 
-30.3888

>  <r_i_glide_energy>  (85) 
-24.5799

>  <r_i_glide_einternal>  (85) 
0.203662

>  <r_i_glide_intrahb_reward>  (85) 
-0

>  <i_i_glide_confnum>  (85) 
1

>  <i_i_glide_posenum>  (85) 
3

>  <r_i_glide_eff_state_penalty>  (85) 
0

>  <ligand_id>  (85) 
29

>  <original_smiles>  (85) 
COC(=O)c1cnccc1N1CCOCC1

>  <smiles>  (85) 
[H]c1nc([H])c(C(=O)OC([H])([H])[H])c(N2C([H])([H])C([H])([H])OC([H])([H])C2([H])[H])c1[H]

$$$$
29:0:2
     RDKit          3D

 30 31  0  0  1  0  0  0  0  0999 V2000
    4.8610   -6.7066    0.7552 C   0  0  0  0  0  0  0  0  0  0  0  0
    4.6152   -5.3170    0.6539 O   0  0  0  0  0  0  0  0  0  0  0  0
    5.4337   -4.4395    1.2536 C   0  0  0  0  0  0  0  0  0  0  0  0
    6.4359   -4.7715    1.8873 O   0  0  0  0  0  0  0  0  0  0  0  0
    4.9838   -3.0224    1.1244 C   0  0  0  0  0  0  0  0  0  0  0  0
    5.2565   -2.1666    2.2144 C   0  0  0  0  0  0  0  0  0  0  0  0
    4.8344   -0.8900    2.3058 N   0  0  0  0  0  0  0  0  0  0  0  0
    4.0891   -0.4027    1.2970 C   0  0  0  0  0  0  0  0  0  0  0  0
    3.7799   -1.1521    0.1456 C   0  0  0  0  0  0  0  0  0  0  0  0
    4.2304   -2.4812    0.0382 C   0  0  0  0  0  0  0  0  0  0  0  0
    3.9591   -3.1763   -1.1562 N   0  0  0  0  0  0  0  0  0  0  0  0
    5.0227   -3.8080   -1.9241 C   0  0  0  0  0  0  0  0  0  0  0  0
    5.0132   -3.2889   -3.3666 C   0  0  0  0  0  0  0  0  0  0  0  0
    3.7194   -3.4426   -3.9473 O   0  0  0  0  0  0  0  0  0  0  0  0
    2.7095   -2.7224   -3.2299 C   0  0  0  0  0  0  0  0  0  0  0  0
    2.6340   -3.2105   -1.7655 C   0  0  0  0  0  0  0  0  0  0  0  0
    4.1923   -7.2451    0.0840 H   0  0  0  0  0  0  0  0  0  0  0  0
    4.6643   -7.0294    1.7767 H   0  0  0  0  0  0  0  0  0  0  0  0
    5.8835   -6.9759    0.4897 H   0  0  0  0  0  0  0  0  0  0  0  0
    5.8092   -2.5176    3.0708 H   0  0  0  0  0  0  0  0  0  0  0  0
    3.7415    0.6104    1.4084 H   0  0  0  0  0  0  0  0  0  0  0  0
    3.1757   -0.7073   -0.6352 H   0  0  0  0  0  0  0  0  0  0  0  0
    5.9872   -3.6020   -1.4611 H   0  0  0  0  0  0  0  0  0  0  0  0
    4.8767   -4.8883   -1.9284 H   0  0  0  0  0  0  0  0  0  0  0  0
    5.3133   -2.2418   -3.3895 H   0  0  0  0  0  0  0  0  0  0  0  0
    5.7486   -3.8462   -3.9468 H   0  0  0  0  0  0  0  0  0  0  0  0
    2.9207   -1.6530   -3.2812 H   0  0  0  0  0  0  0  0  0  0  0  0
    1.7522   -2.8827   -3.7305 H   0  0  0  0  0  0  0  0  0  0  0  0
    2.2774   -4.2449   -1.7441 H   0  0  0  0  0  0  0  0  0  0  0  0
    1.9190   -2.6610   -1.1795 H   0  0  0  0  0  0  0  0  0  0  0  0
  1  2  1  0
  1 17  1  0
  1 18  1  0
  1 19  1  0
  2  3  1  0
  3  4  2  0
  3  5  1  0
  5 10  2  0
  5  6  1  0
  6  7  2  0
  6 20  1  0
  7  8  1  0
  8  9  2  0
  8 21  1  0
  9 10  1  0
  9 22  1  0
 10 11  1  0
 11 16  1  0
 11 12  1  0
 12 13  1  0
 12 23  1  0
 12 24  1  0
 13 14  1  0
 13 25  1  0
 13 26  1  0
 14 15  1  0
 15 16  1  0
 15 27  1  0
 15 28  1  0
 16 29  1  0
 16 30  1  0
M  END
>  <i_m_ct_stereo_status>  (86) 
1

>  <s_m_source_file>  (86) 
/var/tmp/pbs.5076255.sched01/tmpmmp70uc3/38qnywpnyg.sdf

>  <i_m_source_file_index>  (86) 
2

>  <i_lp_mmshare_version>  (86) 
48012

>  <i_f3d_flags>  (86) 
0

>  <s_epik_input>  (86) 
W0NIM11PQyg9TyljMVtjSF1uW2NIXVtjSF1jMU4yW0NIMl1bQ0gyXU9bQ0gyXVtDSDJdMg==

>  <s_epik_cmdline>  (86) 
J2VwaWtfcHl0aG9uJywgJy1waHQnLCAnMi4wJywgJy1waCcsICc3LjAnLCAnLXRuJywgJzgnLCAnLW1hJywgJzIwMCcsICctaW1hZScsICc8aW5maWxlLm1hZT4nLCAnLW9tYWUnLCAnPG91dGZpbGUubWFlPic=

>  <r_epik_Ionization_Penalty>  (86) 
0.156672

>  <r_epik_Ionization_Penalty_Charging>  (86) 
0

>  <r_epik_Ionization_Penalty_Neutral>  (86) 
0.156672

>  <r_epik_State_Penalty>  (86) 
0.145971

>  <r_epik_Charging_Adjusted_Penalty>  (86) 
0.145971

>  <i_epik_Tot_Q>  (86) 
0

>  <i_epik_Tot_abs_Q>  (86) 
0

>  <s_epik_Chemistry_Notes>  (86) 
This compound has an ester and may undergo hydrolysis at high or low pH.

>  <s_lp_Force_Field>  (86) 
OPLS3e

>  <r_lp_Energy>  (86) 
25.6946

>  <b_lp_Chiralities_Consistent>  (86) 
1

>  <s_lp_Variant>  (86) 
29:0-1

>  <s_i_glide_gridfile>  (86) 
pfpi4k_grid

>  <i_i_glide_lignum>  (86) 
2

>  <i_i_glide_rotatable_bonds>  (86) 
3

>  <r_i_docking_score>  (86) 
-3.38828

>  <r_i_glide_ligand_efficiency>  (86) 
-0.211768

>  <r_i_glide_ligand_efficiency_sa>  (86) 
-0.533621

>  <r_i_glide_ligand_efficiency_ln>  (86) 
-0.898132

>  <r_i_glide_gscore>  (86) 
-3.38828

>  <r_i_glide_lipo>  (86) 
-0.757875

>  <r_i_glide_hbond>  (86) 
0

>  <r_i_glide_metal>  (86) 
-0

>  <r_i_glide_rewards>  (86) 
-1.96468

>  <r_i_glide_evdw>  (86) 
-22.1584

>  <r_i_glide_ecoul>  (86) 
-1.58387

>  <r_i_glide_erotb>  (86) 
0.684215

>  <r_i_glide_esite>  (86) 
-0.00444664

>  <r_i_glide_emodel>  (86) 
-28.9631

>  <r_i_glide_energy>  (86) 
-23.7422

>  <r_i_glide_einternal>  (86) 
1.17424

>  <r_i_glide_intrahb_reward>  (86) 
-0

>  <i_i_glide_confnum>  (86) 
5

>  <i_i_glide_posenum>  (86) 
10

>  <r_i_glide_eff_state_penalty>  (86) 
0

>  <ligand_id>  (86) 
29

>  <original_smiles>  (86) 
COC(=O)c1cnccc1N1CCOCC1

>  <smiles>  (86) 
[H]c1nc([H])c(C(=O)OC([H])([H])[H])c(N2C([H])([H])C([H])([H])OC([H])([H])C2([H])[H])c1[H]

$$$$
29:1:0
     RDKit          3D

 31 32  0  0  1  0  0  0  0  0999 V2000
    2.2429    8.5032    4.5851 C   0  0  0  0  0  0  0  0  0  0  0  0
    2.3041    7.1649    4.1363 O   0  0  0  0  0  0  0  0  0  0  0  0
    1.2328    6.3671    4.3067 C   0  0  0  0  0  0  0  0  0  0  0  0
    0.2136    6.7774    4.8706 O   0  0  0  0  0  0  0  0  0  0  0  0
    1.4666    4.9789    3.7642 C   0  0  0  0  0  0  0  0  0  0  0  0
    2.7337    4.6898    3.1902 C   0  0  0  0  0  0  0  0  0  0  0  0
    3.0127    3.4886    2.6533 N   0  0  0  0  0  0  0  0  0  0  0  0
    2.1103    2.4937    2.5864 C   0  0  0  0  0  0  0  0  0  0  0  0
    0.8216    2.6756    3.1309 C   0  0  0  0  0  0  0  0  0  0  0  0
    0.4932    3.9217    3.7323 C   0  0  0  0  0  0  0  0  0  0  0  0
   -0.7817    4.0673    4.2840 N   0  0  0  0  0  0  0  0  0  0  0  0
   -1.9950    3.8728    3.4987 C   0  0  0  0  0  0  0  0  0  0  0  0
   -2.8784    2.8161    4.1682 C   0  0  0  0  0  0  0  0  0  0  0  0
   -3.0546    3.1261    5.5550 O   0  0  0  0  0  0  0  0  0  0  0  0
   -1.8372    3.0950    6.2957 C   0  0  0  0  0  0  0  0  0  0  0  0
   -0.9191    4.1863    5.7316 C   0  0  0  0  0  0  0  0  0  0  0  0
    3.1906    8.9920    4.3744 H   0  0  0  0  0  0  0  0  0  0  0  0
    2.0663    8.5315    5.6613 H   0  0  0  0  0  0  0  0  0  0  0  0
    1.4464    9.0531    4.0804 H   0  0  0  0  0  0  0  0  0  0  0  0
    3.5621    5.3754    3.1390 H   0  0  0  0  0  0  0  0  0  0  0  0
    2.4424    1.5857    2.1131 H   0  0  0  0  0  0  0  0  0  0  0  0
    0.0836    1.8894    3.0734 H   0  0  0  0  0  0  0  0  0  0  0  0
   -2.5448    4.8103    3.4894 H   0  0  0  0  0  0  0  0  0  0  0  0
   -1.7772    3.6210    2.4591 H   0  0  0  0  0  0  0  0  0  0  0  0
   -3.8569    2.7822    3.6874 H   0  0  0  0  0  0  0  0  0  0  0  0
   -2.4458    1.8188    4.0681 H   0  0  0  0  0  0  0  0  0  0  0  0
   -2.0521    3.3080    7.3478 H   0  0  0  0  0  0  0  0  0  0  0  0
   -1.3676    2.1109    6.2402 H   0  0  0  0  0  0  0  0  0  0  0  0
    0.0595    4.1758    6.2175 H   0  0  0  0  0  0  0  0  0  0  0  0
   -1.3757    5.1490    5.9324 H   0  0  0  0  0  0  0  0  0  0  0  0
    3.9753    3.3288    2.2723 H   0  0  0  0  0  0  0  0  0  0  0  0
  1  2  1  0
  1 17  1  0
  1 18  1  0
  1 19  1  0
  2  3  1  0
  3  4  2  0
  3  5  1  0
  5 10  2  0
  5  6  1  0
  6  7  2  0
  6 20  1  0
  7  8  1  0
  7 31  1  0
  8  9  2  0
  8 21  1  0
  9 10  1  0
  9 22  1  0
 10 11  1  0
 11 16  1  0
 11 12  1  0
 12 13  1  0
 12 23  1  0
 12 24  1  0
 13 14  1  0
 13 25  1  0
 13 26  1  0
 14 15  1  0
 15 16  1  0
 15 27  1  0
 15 28  1  0
 16 29  1  0
 16 30  1  0
M  CHG  1   7   1
M  END
>  <i_m_ct_stereo_status>  (87) 
1

>  <s_m_source_file>  (87) 
/var/tmp/pbs.5076255.sched01/tmpmmp70uc3/38qnywpnyg.sdf

>  <i_m_source_file_index>  (87) 
3

>  <i_lp_mmshare_version>  (87) 
48012

>  <i_f3d_flags>  (87) 
0

>  <s_epik_input>  (87) 
W0NIM11PQyg9TyljMVtjSF1uW2NIXVtjSF1jMU4yW0NIMl1bQ0gyXU9bQ0gyXVtDSDJdMg==

>  <s_epik_cmdline>  (87) 
J2VwaWtfcHl0aG9uJywgJy1waHQnLCAnMi4wJywgJy1waCcsICc3LjAnLCAnLXRuJywgJzgnLCAnLW1hJywgJzIwMCcsICctaW1hZScsICc8aW5maWxlLm1hZT4nLCAnLW9tYWUnLCAnPG91dGZpbGUubWFlPic=

>  <r_epik_Ionization_Penalty>  (87) 
0.864718

>  <r_epik_Ionization_Penalty_Charging>  (87) 
0.864718

>  <r_epik_Ionization_Penalty_Neutral>  (87) 
3.19042e-12

>  <r_epik_State_Penalty>  (87) 
0.901512

>  <r_epik_Charging_Adjusted_Penalty>  (87) 
1.76623

>  <i_epik_Tot_Q>  (87) 
1

>  <i_epik_Tot_abs_Q>  (87) 
1

>  <s_epik_Chemistry_Notes>  (87) 
This compound has an ester and may undergo hydrolysis at high or low pH.

>  <s_lp_Force_Field>  (87) 
OPLS3e

>  <r_lp_Energy>  (87) 
31.0569

>  <b_lp_Chiralities_Consistent>  (87) 
1

>  <s_lp_Variant>  (87) 
29:0-2

>  <s_i_glide_gridfile>  (87) 
pfpi4k_grid

>  <i_i_glide_lignum>  (87) 
3

>  <i_i_glide_rotatable_bonds>  (87) 
3

>  <r_i_docking_score>  (87) 
-3.72186

>  <r_i_glide_ligand_efficiency>  (87) 
-0.232616

>  <r_i_glide_ligand_efficiency_sa>  (87) 
-0.586156

>  <r_i_glide_ligand_efficiency_ln>  (87) 
-0.986553

>  <r_i_glide_gscore>  (87) 
-3.72186

>  <r_i_glide_lipo>  (87) 
-0.0687344

>  <r_i_glide_hbond>  (87) 
-0.0239647

>  <r_i_glide_metal>  (87) 
-0

>  <r_i_glide_rewards>  (87) 
-1.88694

>  <r_i_glide_evdw>  (87) 
-15.7668

>  <r_i_glide_ecoul>  (87) 
-9.90263

>  <r_i_glide_erotb>  (87) 
0.679002

>  <r_i_glide_esite>  (87) 
-0.147487

>  <r_i_glide_emodel>  (87) 
-33.2146

>  <r_i_glide_energy>  (87) 
-25.6694

>  <r_i_glide_einternal>  (87) 
1.61877

>  <r_i_glide_intrahb_reward>  (87) 
-0

>  <i_i_glide_confnum>  (87) 
4

>  <i_i_glide_posenum>  (87) 
5

>  <r_i_glide_eff_state_penalty>  (87) 
0

>  <ligand_id>  (87) 
29

>  <original_smiles>  (87) 
COC(=O)c1cnccc1N1CCOCC1

>  <smiles>  (87) 
[H]c1c(N2C([H])([H])C([H])([H])OC([H])([H])C2([H])[H])c(C(=O)OC([H])([H])[H])c([H])[n+]([H])c1[H]

$$$$
29:1:1
     RDKit          3D

 31 32  0  0  1  0  0  0  0  0999 V2000
    4.6587   -7.1984    1.0118 C   0  0  0  0  0  0  0  0  0  0  0  0
    4.2146   -5.8886    1.3032 O   0  0  0  0  0  0  0  0  0  0  0  0
    4.6635   -4.8509    0.5644 C   0  0  0  0  0  0  0  0  0  0  0  0
    5.4887   -4.9782   -0.3411 O   0  0  0  0  0  0  0  0  0  0  0  0
    4.0771   -3.5339    0.9826 C   0  0  0  0  0  0  0  0  0  0  0  0
    3.7598   -3.4299    2.3728 C   0  0  0  0  0  0  0  0  0  0  0  0
    3.2913   -2.2862    2.8966 N   0  0  0  0  0  0  0  0  0  0  0  0
    3.0862   -1.1837    2.1731 C   0  0  0  0  0  0  0  0  0  0  0  0
    3.3736   -1.2158    0.7923 C   0  0  0  0  0  0  0  0  0  0  0  0
    3.8868   -2.3725    0.1655 C   0  0  0  0  0  0  0  0  0  0  0  0
    4.1301   -2.2778   -1.2366 N   0  0  0  0  0  0  0  0  0  0  0  0
    4.6609   -1.0712   -1.8643 C   0  0  0  0  0  0  0  0  0  0  0  0
    3.8000   -0.6414   -3.0802 C   0  0  0  0  0  0  0  0  0  0  0  0
    3.6401   -1.7279   -3.9841 O   0  0  0  0  0  0  0  0  0  0  0  0
    2.9597   -2.8118   -3.3607 C   0  0  0  0  0  0  0  0  0  0  0  0
    3.7972   -3.3326   -2.1869 C   0  0  0  0  0  0  0  0  0  0  0  0
    4.3765   -7.8867    1.8132 H   0  0  0  0  0  0  0  0  0  0  0  0
    5.7453   -7.2121    0.8984 H   0  0  0  0  0  0  0  0  0  0  0  0
    4.2161   -7.5271    0.0696 H   0  0  0  0  0  0  0  0  0  0  0  0
    3.8898   -4.2201    3.0842 H   0  0  0  0  0  0  0  0  0  0  0  0
    2.6893   -0.3134    2.6808 H   0  0  0  0  0  0  0  0  0  0  0  0
    3.1359   -0.3427    0.2247 H   0  0  0  0  0  0  0  0  0  0  0  0
    4.7665   -0.2333   -1.1689 H   0  0  0  0  0  0  0  0  0  0  0  0
    5.6746   -1.3032   -2.1851 H   0  0  0  0  0  0  0  0  0  0  0  0
    2.8169   -0.3036   -2.7522 H   0  0  0  0  0  0  0  0  0  0  0  0
    4.2601    0.1977   -3.6019 H   0  0  0  0  0  0  0  0  0  0  0  0
    1.9681   -2.5162   -3.0287 H   0  0  0  0  0  0  0  0  0  0  0  0
    2.8209   -3.6210   -4.0768 H   0  0  0  0  0  0  0  0  0  0  0  0
    4.7171   -3.7523   -2.6127 H   0  0  0  0  0  0  0  0  0  0  0  0
    3.2027   -4.1067   -1.7164 H   0  0  0  0  0  0  0  0  0  0  0  0
    3.1034   -2.2471    3.9006 H   0  0  0  0  0  0  0  0  0  0  0  0
  1  2  1  0
  1 17  1  0
  1 18  1  0
  1 19  1  0
  2  3  1  0
  3  4  2  0
  3  5  1  0
  5 10  2  0
  5  6  1  0
  6  7  2  0
  6 20  1  0
  7  8  1  0
  7 31  1  0
  8  9  2  0
  8 21  1  0
  9 10  1  0
  9 22  1  0
 10 11  1  0
 11 16  1  0
 11 12  1  0
 12 13  1  0
 12 23  1  0
 12 24  1  0
 13 14  1  0
 13 25  1  0
 13 26  1  0
 14 15  1  0
 15 16  1  0
 15 27  1  0
 15 28  1  0
 16 29  1  0
 16 30  1  0
M  CHG  1   7   1
M  END
>  <i_m_ct_stereo_status>  (88) 
1

>  <s_m_source_file>  (88) 
/var/tmp/pbs.5076255.sched01/tmpmmp70uc3/38qnywpnyg.sdf

>  <i_m_source_file_index>  (88) 
3

>  <i_lp_mmshare_version>  (88) 
48012

>  <i_f3d_flags>  (88) 
0

>  <s_epik_input>  (88) 
W0NIM11PQyg9TyljMVtjSF1uW2NIXVtjSF1jMU4yW0NIMl1bQ0gyXU9bQ0gyXVtDSDJdMg==

>  <s_epik_cmdline>  (88) 
J2VwaWtfcHl0aG9uJywgJy1waHQnLCAnMi4wJywgJy1waCcsICc3LjAnLCAnLXRuJywgJzgnLCAnLW1hJywgJzIwMCcsICctaW1hZScsICc8aW5maWxlLm1hZT4nLCAnLW9tYWUnLCAnPG91dGZpbGUubWFlPic=

>  <r_epik_Ionization_Penalty>  (88) 
0.864718

>  <r_epik_Ionization_Penalty_Charging>  (88) 
0.864718

>  <r_epik_Ionization_Penalty_Neutral>  (88) 
3.19042e-12

>  <r_epik_State_Penalty>  (88) 
0.901512

>  <r_epik_Charging_Adjusted_Penalty>  (88) 
1.76623

>  <i_epik_Tot_Q>  (88) 
1

>  <i_epik_Tot_abs_Q>  (88) 
1

>  <s_epik_Chemistry_Notes>  (88) 
This compound has an ester and may undergo hydrolysis at high or low pH.

>  <s_lp_Force_Field>  (88) 
OPLS3e

>  <r_lp_Energy>  (88) 
31.0569

>  <b_lp_Chiralities_Consistent>  (88) 
1

>  <s_lp_Variant>  (88) 
29:0-2

>  <s_i_glide_gridfile>  (88) 
pfpi4k_grid

>  <i_i_glide_lignum>  (88) 
3

>  <i_i_glide_rotatable_bonds>  (88) 
3

>  <r_i_docking_score>  (88) 
-3.52215

>  <r_i_glide_ligand_efficiency>  (88) 
-0.220135

>  <r_i_glide_ligand_efficiency_sa>  (88) 
-0.554705

>  <r_i_glide_ligand_efficiency_ln>  (88) 
-0.933617

>  <r_i_glide_gscore>  (88) 
-3.52215

>  <r_i_glide_lipo>  (88) 
-0.392165

>  <r_i_glide_hbond>  (88) 
-0.0808007

>  <r_i_glide_metal>  (88) 
-0

>  <r_i_glide_rewards>  (88) 
-1.95933

>  <r_i_glide_evdw>  (88) 
-21.6006

>  <r_i_glide_ecoul>  (88) 
-4.42531

>  <r_i_glide_erotb>  (88) 
0.679002

>  <r_i_glide_esite>  (88) 
-0.0250319

>  <r_i_glide_emodel>  (88) 
-33.0509

>  <r_i_glide_energy>  (88) 
-26.0259

>  <r_i_glide_einternal>  (88) 
1.30072

>  <r_i_glide_intrahb_reward>  (88) 
-0

>  <i_i_glide_confnum>  (88) 
1

>  <i_i_glide_posenum>  (88) 
6

>  <r_i_glide_eff_state_penalty>  (88) 
0

>  <ligand_id>  (88) 
29

>  <original_smiles>  (88) 
COC(=O)c1cnccc1N1CCOCC1

>  <smiles>  (88) 
[H]c1c(N2C([H])([H])C([H])([H])OC([H])([H])C2([H])[H])c(C(=O)OC([H])([H])[H])c([H])[n+]([H])c1[H]

$$$$
29:1:2
     RDKit          3D

 31 32  0  0  1  0  0  0  0  0999 V2000
    5.1804   -6.9149    0.8802 C   0  0  0  0  0  0  0  0  0  0  0  0
    4.5994   -8.0181    1.5499 O   0  0  0  0  0  0  0  0  0  0  0  0
    3.2678   -8.0559    1.7035 C   0  0  0  0  0  0  0  0  0  0  0  0
    2.5293   -7.1927    1.2433 O   0  0  0  0  0  0  0  0  0  0  0  0
    2.7985   -9.2180    2.5368 C   0  0  0  0  0  0  0  0  0  0  0  0
    3.7202  -10.2719    2.7686 C   0  0  0  0  0  0  0  0  0  0  0  0
    3.3739  -11.3503    3.4937 N   0  0  0  0  0  0  0  0  0  0  0  0
    2.1597  -11.4910    4.0513 C   0  0  0  0  0  0  0  0  0  0  0  0
    1.1895  -10.4990    3.8566 C   0  0  0  0  0  0  0  0  0  0  0  0
    1.4923   -9.3317    3.1099 C   0  0  0  0  0  0  0  0  0  0  0  0
    0.4901   -8.3367    3.0141 N   0  0  0  0  0  0  0  0  0  0  0  0
   -0.9136   -8.6588    2.7947 C   0  0  0  0  0  0  0  0  0  0  0  0
   -1.7804   -8.0643    3.9255 C   0  0  0  0  0  0  0  0  0  0  0  0
   -1.5013   -6.6774    4.1000 O   0  0  0  0  0  0  0  0  0  0  0  0
   -0.1554   -6.4517    4.4944 C   0  0  0  0  0  0  0  0  0  0  0  0
    0.7643   -6.9505    3.3798 C   0  0  0  0  0  0  0  0  0  0  0  0
    6.2628   -7.0485    0.8530 H   0  0  0  0  0  0  0  0  0  0  0  0
    4.9551   -5.9877    1.4166 H   0  0  0  0  0  0  0  0  0  0  0  0
    4.8007   -6.8256   -0.1365 H   0  0  0  0  0  0  0  0  0  0  0  0
    4.7207  -10.3155    2.3706 H   0  0  0  0  0  0  0  0  0  0  0  0
    2.0055  -12.3794    4.6504 H   0  0  0  0  0  0  0  0  0  0  0  0
    0.2208  -10.6335    4.3078 H   0  0  0  0  0  0  0  0  0  0  0  0
   -1.2167   -8.2174    1.8410 H   0  0  0  0  0  0  0  0  0  0  0  0
   -1.0839   -9.7333    2.6919 H   0  0  0  0  0  0  0  0  0  0  0  0
   -2.8327   -8.1641    3.6791 H   0  0  0  0  0  0  0  0  0  0  0  0
   -1.6205   -8.5944    4.8628 H   0  0  0  0  0  0  0  0  0  0  0  0
    0.0026   -5.3814    4.6259 H   0  0  0  0  0  0  0  0  0  0  0  0
    0.0650   -6.9301    5.4493 H   0  0  0  0  0  0  0  0  0  0  0  0
    1.7931   -6.8284    3.7117 H   0  0  0  0  0  0  0  0  0  0  0  0
    0.5914   -6.3197    2.5033 H   0  0  0  0  0  0  0  0  0  0  0  0
    4.0591  -12.0916    3.6226 H   0  0  0  0  0  0  0  0  0  0  0  0
  1  2  1  0
  1 17  1  0
  1 18  1  0
  1 19  1  0
  2  3  1  0
  3  4  2  0
  3  5  1  0
  5 10  2  0
  5  6  1  0
  6  7  2  0
  6 20  1  0
  7  8  1  0
  7 31  1  0
  8  9  2  0
  8 21  1  0
  9 10  1  0
  9 22  1  0
 10 11  1  0
 11 16  1  0
 11 12  1  0
 12 13  1  0
 12 23  1  0
 12 24  1  0
 13 14  1  0
 13 25  1  0
 13 26  1  0
 14 15  1  0
 15 16  1  0
 15 27  1  0
 15 28  1  0
 16 29  1  0
 16 30  1  0
M  CHG  1   7   1
M  END
>  <i_m_ct_stereo_status>  (89) 
1

>  <s_m_source_file>  (89) 
/var/tmp/pbs.5076255.sched01/tmpmmp70uc3/38qnywpnyg.sdf

>  <i_m_source_file_index>  (89) 
3

>  <i_lp_mmshare_version>  (89) 
48012

>  <i_f3d_flags>  (89) 
0

>  <s_epik_input>  (89) 
W0NIM11PQyg9TyljMVtjSF1uW2NIXVtjSF1jMU4yW0NIMl1bQ0gyXU9bQ0gyXVtDSDJdMg==

>  <s_epik_cmdline>  (89) 
J2VwaWtfcHl0aG9uJywgJy1waHQnLCAnMi4wJywgJy1waCcsICc3LjAnLCAnLXRuJywgJzgnLCAnLW1hJywgJzIwMCcsICctaW1hZScsICc8aW5maWxlLm1hZT4nLCAnLW9tYWUnLCAnPG91dGZpbGUubWFlPic=

>  <r_epik_Ionization_Penalty>  (89) 
0.864718

>  <r_epik_Ionization_Penalty_Charging>  (89) 
0.864718

>  <r_epik_Ionization_Penalty_Neutral>  (89) 
3.19042e-12

>  <r_epik_State_Penalty>  (89) 
0.901512

>  <r_epik_Charging_Adjusted_Penalty>  (89) 
1.76623

>  <i_epik_Tot_Q>  (89) 
1

>  <i_epik_Tot_abs_Q>  (89) 
1

>  <s_epik_Chemistry_Notes>  (89) 
This compound has an ester and may undergo hydrolysis at high or low pH.

>  <s_lp_Force_Field>  (89) 
OPLS3e

>  <r_lp_Energy>  (89) 
31.0569

>  <b_lp_Chiralities_Consistent>  (89) 
1

>  <s_lp_Variant>  (89) 
29:0-2

>  <s_i_glide_gridfile>  (89) 
pfpi4k_grid

>  <i_i_glide_lignum>  (89) 
3

>  <i_i_glide_rotatable_bonds>  (89) 
3

>  <r_i_docking_score>  (89) 
-3.07949

>  <r_i_glide_ligand_efficiency>  (89) 
-0.192468

>  <r_i_glide_ligand_efficiency_sa>  (89) 
-0.48499

>  <r_i_glide_ligand_efficiency_ln>  (89) 
-0.816281

>  <r_i_glide_gscore>  (89) 
-3.07949

>  <r_i_glide_lipo>  (89) 
-0.127142

>  <r_i_glide_hbond>  (89) 
-0.038094

>  <r_i_glide_metal>  (89) 
-0

>  <r_i_glide_rewards>  (89) 
-1.88694

>  <r_i_glide_evdw>  (89) 
-19.6726

>  <r_i_glide_ecoul>  (89) 
-4.37882

>  <r_i_glide_erotb>  (89) 
0.679002

>  <r_i_glide_esite>  (89) 
-0.0658663

>  <r_i_glide_emodel>  (89) 
-30.7431

>  <r_i_glide_energy>  (89) 
-24.0514

>  <r_i_glide_einternal>  (89) 
0.159419

>  <r_i_glide_intrahb_reward>  (89) 
-0

>  <i_i_glide_confnum>  (89) 
2

>  <i_i_glide_posenum>  (89) 
14

>  <r_i_glide_eff_state_penalty>  (89) 
0

>  <ligand_id>  (89) 
29

>  <original_smiles>  (89) 
COC(=O)c1cnccc1N1CCOCC1

>  <smiles>  (89) 
[H]c1c(N2C([H])([H])C([H])([H])OC([H])([H])C2([H])[H])c(C(=O)OC([H])([H])[H])c([H])[n+]([H])c1[H]

$$$$
30:0:0
     RDKit          3D

 37 39  0  0  1  0  0  0  0  0999 V2000
    5.2358   -5.7194    0.3805 C   0  0  0  0  0  0  0  0  0  0  0  0
    4.4539   -4.8413    1.3864 C   0  0  0  0  0  0  0  0  0  0  0  0
    5.1439   -3.4701    1.5115 C   0  0  0  0  0  0  0  0  0  0  0  0
    2.9947   -4.6178    0.9205 C   0  0  0  0  0  0  0  0  0  0  0  0
    2.1239   -5.8808    0.9767 C   0  0  0  0  0  0  0  0  0  0  0  0
    1.1480   -5.9584    0.2264 O   0  0  0  0  0  0  0  0  0  0  0  0
    2.4558   -6.9091    1.9917 C   0  0  0  0  0  0  0  0  0  0  0  0
    3.5205   -6.7353    2.8052 C   0  0  0  0  0  0  0  0  0  0  0  0
    4.4312   -5.5219    2.7680 C   0  0  0  0  0  0  0  0  0  0  0  0
    3.9111   -7.6298    3.7785 O   0  0  0  0  0  0  0  0  0  0  0  0
    3.2636   -8.8374    3.9289 C   0  0  0  0  0  0  0  0  0  0  0  0
    3.4180   -9.5079    4.9918 N   0  0  0  0  0  0  0  0  0  0  0  0
    2.4294   -9.2907    2.7268 C   0  0  1  0  0  0  0  0  0  0  0  0
    1.6318  -10.4864    3.0367 C   0  0  0  0  0  0  0  0  0  0  0  0
    1.0095  -11.4308    3.2819 N   0  0  0  0  0  0  0  0  0  0  0  0
    1.6055   -8.1585    2.0771 C   0  0  1  0  0  0  0  0  0  0  0  0
    0.3073   -7.8775    2.7749 C   0  0  0  0  0  0  0  0  0  0  0  0
   -1.0038   -8.1353    2.4812 C   0  0  0  0  0  0  0  0  0  0  0  0
   -1.7659   -7.5858    3.5503 C   0  0  0  0  0  0  0  0  0  0  0  0
   -0.8636   -7.0449    4.4193 C   0  0  0  0  0  0  0  0  0  0  0  0
    0.4029   -7.2164    3.9626 O   0  0  0  0  0  0  0  0  0  0  0  0
    5.2501   -5.2755   -0.6170 H   0  0  0  0  0  0  0  0  0  0  0  0
    4.7998   -6.7150    0.2808 H   0  0  0  0  0  0  0  0  0  0  0  0
    6.2708   -5.8591    0.6989 H   0  0  0  0  0  0  0  0  0  0  0  0
    4.6121   -2.8307    2.2177 H   0  0  0  0  0  0  0  0  0  0  0  0
    5.1732   -2.9437    0.5577 H   0  0  0  0  0  0  0  0  0  0  0  0
    6.1686   -3.5667    1.8715 H   0  0  0  0  0  0  0  0  0  0  0  0
    2.5145   -3.8777    1.5644 H   0  0  0  0  0  0  0  0  0  0  0  0
    2.9790   -4.2138   -0.0914 H   0  0  0  0  0  0  0  0  0  0  0  0
    5.4371   -5.8128    3.0712 H   0  0  0  0  0  0  0  0  0  0  0  0
    4.0666   -4.8204    3.5195 H   0  0  0  0  0  0  0  0  0  0  0  0
    3.1572   -9.6233    1.9858 H   0  0  0  0  0  0  0  0  0  0  0  0
    1.3872   -8.4860    1.0602 H   0  0  0  0  0  0  0  0  0  0  0  0
   -1.3628   -8.6553    1.6028 H   0  0  0  0  0  0  0  0  0  0  0  0
   -2.8393   -7.5912    3.6727 H   0  0  0  0  0  0  0  0  0  0  0  0
   -0.9464   -6.5239    5.3616 H   0  0  0  0  0  0  0  0  0  0  0  0
    2.9255  -10.3929    5.0086 H   0  0  0  0  0  0  0  0  0  0  0  0
  1  2  1  0
  1 22  1  0
  1 23  1  0
  1 24  1  0
  2  9  1  0
  2  3  1  0
  2  4  1  0
  3 25  1  0
  3 26  1  0
  3 27  1  0
  4  5  1  0
  4 28  1  0
  4 29  1  0
  5  6  2  0
  5  7  1  0
  7 16  1  0
  7  8  2  0
  8  9  1  0
  8 10  1  0
  9 30  1  0
  9 31  1  0
 10 11  1  0
 11 12  2  3
 11 13  1  0
 12 37  1  0
 13 14  1  0
 13 16  1  0
 13 32  1  6
 14 15  3  0
 16 17  1  0
 16 33  1  6
 17 21  1  0
 17 18  2  0
 18 19  1  0
 18 34  1  0
 19 20  2  0
 19 35  1  0
 20 21  1  0
 20 36  1  0
M  END
>  <i_m_ct_stereo_status>  (90) 
1

>  <s_m_source_file>  (90) 
/var/tmp/pbs.5076255.sched01/tmpmmp70uc3/38qnywpnyg.sdf

>  <i_m_source_file_index>  (90) 
4

>  <i_lp_mmshare_version>  (90) 
48012

>  <i_f3d_flags>  (90) 
0

>  <s_epik_input>  (90) 
Tz1DMVtDSDJdQyhbQ0gzXSkoW0NIM10pW0NIMl1DKD1DMTIpTy9DKD1OXFtIXSlbQ0BASF0oQyNOKVtDQEhdMmMzW2NIXVtjSF1bY0hdbzM=

>  <s_epik_cmdline>  (90) 
J2VwaWtfcHl0aG9uJywgJy1waHQnLCAnMi4wJywgJy1waCcsICc3LjAnLCAnLXRuJywgJzgnLCAnLW1hJywgJzIwMCcsICctaW1hZScsICc8aW5maWxlLm1hZT4nLCAnLW9tYWUnLCAnPG91dGZpbGUubWFlPic=

>  <r_epik_Ionization_Penalty>  (90) 
0.0388016

>  <r_epik_Ionization_Penalty_Charging>  (90) 
0

>  <r_epik_Ionization_Penalty_Neutral>  (90) 
0.0388016

>  <r_epik_State_Penalty>  (90) 
0.828509

>  <r_epik_Charging_Adjusted_Penalty>  (90) 
0.828509

>  <i_epik_Tot_Q>  (90) 
0

>  <i_epik_Tot_abs_Q>  (90) 
0

>  <s_epik_Chemistry_Notes>  (90) 
This compound has an imine and may undergo hydrolysis.

>  <s_lp_Force_Field>  (90) 
OPLS3e

>  <r_lp_Energy>  (90) 
7.53407

>  <b_lp_Chiralities_Consistent>  (90) 
1

>  <s_lp_Variant>  (90) 
30:0-1

>  <s_i_glide_gridfile>  (90) 
pfpi4k_grid

>  <i_i_glide_lignum>  (90) 
4

>  <i_i_glide_rotatable_bonds>  (90) 
2

>  <r_i_docking_score>  (90) 
-3.63637

>  <r_i_glide_ligand_efficiency>  (90) 
-0.173161

>  <r_i_glide_ligand_efficiency_sa>  (90) 
-0.477737

>  <r_i_glide_ligand_efficiency_ln>  (90) 
-0.899086

>  <r_i_glide_gscore>  (90) 
-3.63637

>  <r_i_glide_lipo>  (90) 
-0.185327

>  <r_i_glide_hbond>  (90) 
-0.271932

>  <r_i_glide_metal>  (90) 
-0

>  <r_i_glide_rewards>  (90) 
-1.62266

>  <r_i_glide_evdw>  (90) 
-24.0941

>  <r_i_glide_ecoul>  (90) 
-3.56121

>  <r_i_glide_erotb>  (90) 
0.224229

>  <r_i_glide_esite>  (90) 
-0.0417912

>  <r_i_glide_emodel>  (90) 
-33.5976

>  <r_i_glide_energy>  (90) 
-27.6553

>  <r_i_glide_einternal>  (90) 
0.760242

>  <r_i_glide_intrahb_reward>  (90) 
-0

>  <i_i_glide_confnum>  (90) 
4

>  <i_i_glide_posenum>  (90) 
15

>  <r_i_glide_eff_state_penalty>  (90) 
0

>  <ligand_id>  (90) 
30

>  <original_smiles>  (90) 
CC1(C)CC(=O)C2=C(C1)OC(=N)C(C#N)C2c1ccco1

>  <smiles>  (90) 
[H]N=C1OC2=C(C(=O)C([H])([H])C(C([H])([H])[H])(C([H])([H])[H])C2([H])[H])C([H])(c2oc([H])c([H])c2[H])C1([H])C#N

$$$$
30:0:1
     RDKit          3D

 37 39  0  0  1  0  0  0  0  0999 V2000
    4.4227   -3.8273   -3.6693 C   0  0  0  0  0  0  0  0  0  0  0  0
    4.2556   -2.5245   -2.8537 C   0  0  0  0  0  0  0  0  0  0  0  0
    3.9964   -1.3496   -3.8155 C   0  0  0  0  0  0  0  0  0  0  0  0
    3.0665   -2.6216   -1.8652 C   0  0  0  0  0  0  0  0  0  0  0  0
    3.2925   -3.6001   -0.7041 C   0  0  0  0  0  0  0  0  0  0  0  0
    2.3181   -4.1466   -0.1862 O   0  0  0  0  0  0  0  0  0  0  0  0
    4.6840   -3.8079   -0.2368 C   0  0  0  0  0  0  0  0  0  0  0  0
    5.7079   -3.1898   -0.8651 C   0  0  0  0  0  0  0  0  0  0  0  0
    5.5393   -2.2507   -2.0441 C   0  0  0  0  0  0  0  0  0  0  0  0
    7.0347   -3.3313   -0.5223 O   0  0  0  0  0  0  0  0  0  0  0  0
    7.4204   -4.2164    0.4616 C   0  0  0  0  0  0  0  0  0  0  0  0
    8.5897   -4.1526    0.9475 N   0  0  0  0  0  0  0  0  0  0  0  0
    6.3836   -5.2790    0.8379 C   0  0  1  0  0  0  0  0  0  0  0  0
    6.7888   -6.0680    2.0107 C   0  0  0  0  0  0  0  0  0  0  0  0
    7.1156   -6.6941    2.9281 N   0  0  0  0  0  0  0  0  0  0  0  0
    4.9347   -4.7568    0.9157 C   0  0  1  0  0  0  0  0  0  0  0  0
    4.6066   -4.1092    2.2243 C   0  0  0  0  0  0  0  0  0  0  0  0
    3.7991   -4.4509    3.2772 C   0  0  0  0  0  0  0  0  0  0  0  0
    3.9001   -3.3873    4.2145 C   0  0  0  0  0  0  0  0  0  0  0  0
    4.7636   -2.4801    3.6681 C   0  0  0  0  0  0  0  0  0  0  0  0
    5.2120   -2.9124    2.4616 O   0  0  0  0  0  0  0  0  0  0  0  0
    3.5166   -4.0701   -4.2290 H   0  0  0  0  0  0  0  0  0  0  0  0
    4.6345   -4.6669   -3.0095 H   0  0  0  0  0  0  0  0  0  0  0  0
    5.2561   -3.7802   -4.3692 H   0  0  0  0  0  0  0  0  0  0  0  0
    3.8832   -0.4137   -3.2658 H   0  0  0  0  0  0  0  0  0  0  0  0
    3.0869   -1.4991   -4.3972 H   0  0  0  0  0  0  0  0  0  0  0  0
    4.8193   -1.2126   -4.5149 H   0  0  0  0  0  0  0  0  0  0  0  0
    2.8901   -1.6379   -1.4216 H   0  0  0  0  0  0  0  0  0  0  0  0
    2.1521   -2.8931   -2.3932 H   0  0  0  0  0  0  0  0  0  0  0  0
    6.4179   -2.3297   -2.6851 H   0  0  0  0  0  0  0  0  0  0  0  0
    5.5108   -1.2354   -1.6418 H   0  0  0  0  0  0  0  0  0  0  0  0
    6.4099   -5.9920    0.0165 H   0  0  0  0  0  0  0  0  0  0  0  0
    4.2824   -5.6252    0.7938 H   0  0  0  0  0  0  0  0  0  0  0  0
    3.2054   -5.3505    3.3498 H   0  0  0  0  0  0  0  0  0  0  0  0
    3.4030   -3.2898    5.1688 H   0  0  0  0  0  0  0  0  0  0  0  0
    5.1488   -1.5233    3.9894 H   0  0  0  0  0  0  0  0  0  0  0  0
    8.7696   -4.8344    1.6730 H   0  0  0  0  0  0  0  0  0  0  0  0
  1  2  1  0
  1 22  1  0
  1 23  1  0
  1 24  1  0
  2  9  1  0
  2  3  1  0
  2  4  1  0
  3 25  1  0
  3 26  1  0
  3 27  1  0
  4  5  1  0
  4 28  1  0
  4 29  1  0
  5  6  2  0
  5  7  1  0
  7 16  1  0
  7  8  2  0
  8  9  1  0
  8 10  1  0
  9 30  1  0
  9 31  1  0
 10 11  1  0
 11 12  2  3
 11 13  1  0
 12 37  1  0
 13 14  1  0
 13 16  1  0
 13 32  1  6
 14 15  3  0
 16 17  1  0
 16 33  1  6
 17 21  1  0
 17 18  2  0
 18 19  1  0
 18 34  1  0
 19 20  2  0
 19 35  1  0
 20 21  1  0
 20 36  1  0
M  END
>  <i_m_ct_stereo_status>  (91) 
1

>  <s_m_source_file>  (91) 
/var/tmp/pbs.5076255.sched01/tmpmmp70uc3/38qnywpnyg.sdf

>  <i_m_source_file_index>  (91) 
4

>  <i_lp_mmshare_version>  (91) 
48012

>  <i_f3d_flags>  (91) 
0

>  <s_epik_input>  (91) 
Tz1DMVtDSDJdQyhbQ0gzXSkoW0NIM10pW0NIMl1DKD1DMTIpTy9DKD1OXFtIXSlbQ0BASF0oQyNOKVtDQEhdMmMzW2NIXVtjSF1bY0hdbzM=

>  <s_epik_cmdline>  (91) 
J2VwaWtfcHl0aG9uJywgJy1waHQnLCAnMi4wJywgJy1waCcsICc3LjAnLCAnLXRuJywgJzgnLCAnLW1hJywgJzIwMCcsICctaW1hZScsICc8aW5maWxlLm1hZT4nLCAnLW9tYWUnLCAnPG91dGZpbGUubWFlPic=

>  <r_epik_Ionization_Penalty>  (91) 
0.0388016

>  <r_epik_Ionization_Penalty_Charging>  (91) 
0

>  <r_epik_Ionization_Penalty_Neutral>  (91) 
0.0388016

>  <r_epik_State_Penalty>  (91) 
0.828509

>  <r_epik_Charging_Adjusted_Penalty>  (91) 
0.828509

>  <i_epik_Tot_Q>  (91) 
0

>  <i_epik_Tot_abs_Q>  (91) 
0

>  <s_epik_Chemistry_Notes>  (91) 
This compound has an imine and may undergo hydrolysis.

>  <s_lp_Force_Field>  (91) 
OPLS3e

>  <r_lp_Energy>  (91) 
7.53407

>  <b_lp_Chiralities_Consistent>  (91) 
1

>  <s_lp_Variant>  (91) 
30:0-1

>  <s_i_glide_gridfile>  (91) 
pfpi4k_grid

>  <i_i_glide_lignum>  (91) 
4

>  <i_i_glide_rotatable_bonds>  (91) 
2

>  <r_i_docking_score>  (91) 
-3.5993

>  <r_i_glide_ligand_efficiency>  (91) 
-0.171395

>  <r_i_glide_ligand_efficiency_sa>  (91) 
-0.472866

>  <r_i_glide_ligand_efficiency_ln>  (91) 
-0.889919

>  <r_i_glide_gscore>  (91) 
-3.5993

>  <r_i_glide_lipo>  (91) 
-0.558765

>  <r_i_glide_hbond>  (91) 
0

>  <r_i_glide_metal>  (91) 
-0

>  <r_i_glide_rewards>  (91) 
-1.78133

>  <r_i_glide_evdw>  (91) 
-25.4865

>  <r_i_glide_ecoul>  (91) 
-1.39408

>  <r_i_glide_erotb>  (91) 
0.224229

>  <r_i_glide_esite>  (91) 
0

>  <r_i_glide_emodel>  (91) 
-32.7869

>  <r_i_glide_energy>  (91) 
-26.8805

>  <r_i_glide_einternal>  (91) 
0.694329

>  <r_i_glide_intrahb_reward>  (91) 
-0

>  <i_i_glide_confnum>  (91) 
4

>  <i_i_glide_posenum>  (91) 
25

>  <r_i_glide_eff_state_penalty>  (91) 
0

>  <ligand_id>  (91) 
30

>  <original_smiles>  (91) 
CC1(C)CC(=O)C2=C(C1)OC(=N)C(C#N)C2c1ccco1

>  <smiles>  (91) 
[H]N=C1OC2=C(C(=O)C([H])([H])C(C([H])([H])[H])(C([H])([H])[H])C2([H])[H])C([H])(c2oc([H])c([H])c2[H])C1([H])C#N

$$$$
30:0:2
     RDKit          3D

 37 39  0  0  1  0  0  0  0  0999 V2000
    1.2293    1.4806    3.5700 C   0  0  0  0  0  0  0  0  0  0  0  0
   -0.3093    1.6468    3.4905 C   0  0  0  0  0  0  0  0  0  0  0  0
   -0.7876    1.2400    2.0872 C   0  0  0  0  0  0  0  0  0  0  0  0
   -1.0305    0.7579    4.5348 C   0  0  0  0  0  0  0  0  0  0  0  0
   -0.8185    1.2096    5.9848 C   0  0  0  0  0  0  0  0  0  0  0  0
   -0.9147    0.3686    6.8804 O   0  0  0  0  0  0  0  0  0  0  0  0
   -0.5828    2.6525    6.2344 C   0  0  0  0  0  0  0  0  0  0  0  0
   -0.5274    3.5168    5.1968 C   0  0  0  0  0  0  0  0  0  0  0  0
   -0.6947    3.1164    3.7430 C   0  0  0  0  0  0  0  0  0  0  0  0
   -0.3237    4.8743    5.3257 O   0  0  0  0  0  0  0  0  0  0  0  0
   -0.0586    5.4336    6.5561 C   0  0  0  0  0  0  0  0  0  0  0  0
   -0.1818    6.6852    6.7166 N   0  0  0  0  0  0  0  0  0  0  0  0
    0.4138    4.4552    7.6370 C   0  0  1  0  0  0  0  0  0  0  0  0
    0.5188    5.1075    8.9539 C   0  0  0  0  0  0  0  0  0  0  0  0
    0.6058    5.6263    9.9849 N   0  0  0  0  0  0  0  0  0  0  0  0
   -0.3794    3.1291    7.6576 C   0  0  1  0  0  0  0  0  0  0  0  0
   -1.6823    3.2188    8.3936 C   0  0  0  0  0  0  0  0  0  0  0  0
   -2.9878    3.2940    7.9870 C   0  0  0  0  0  0  0  0  0  0  0  0
   -3.7740    3.3449    9.1697 C   0  0  0  0  0  0  0  0  0  0  0  0
   -2.8918    3.3024   10.2079 C   0  0  0  0  0  0  0  0  0  0  0  0
   -1.6122    3.2223    9.7530 O   0  0  0  0  0  0  0  0  0  0  0  0
    1.5328    0.4443    3.4096 H   0  0  0  0  0  0  0  0  0  0  0  0
    1.6260    1.7898    4.5391 H   0  0  0  0  0  0  0  0  0  0  0  0
    1.7290    2.0925    2.8154 H   0  0  0  0  0  0  0  0  0  0  0  0
   -1.8694    1.3473    1.9973 H   0  0  0  0  0  0  0  0  0  0  0  0
   -0.5428    0.2030    1.8629 H   0  0  0  0  0  0  0  0  0  0  0  0
   -0.3340    1.8554    1.3093 H   0  0  0  0  0  0  0  0  0  0  0  0
   -2.1074    0.7806    4.3514 H   0  0  0  0  0  0  0  0  0  0  0  0
   -0.7121   -0.2789    4.4280 H   0  0  0  0  0  0  0  0  0  0  0  0
   -0.1063    3.7810    3.1092 H   0  0  0  0  0  0  0  0  0  0  0  0
   -1.7412    3.2749    3.4805 H   0  0  0  0  0  0  0  0  0  0  0  0
    1.4438    4.2094    7.3744 H   0  0  0  0  0  0  0  0  0  0  0  0
    0.2452    2.4009    8.1771 H   0  0  0  0  0  0  0  0  0  0  0  0
   -3.3260    3.3028    6.9617 H   0  0  0  0  0  0  0  0  0  0  0  0
   -4.8506    3.4079    9.2542 H   0  0  0  0  0  0  0  0  0  0  0  0
   -3.0026    3.3115   11.2829 H   0  0  0  0  0  0  0  0  0  0  0  0
    0.0741    7.0099    7.6401 H   0  0  0  0  0  0  0  0  0  0  0  0
  1  2  1  0
  1 22  1  0
  1 23  1  0
  1 24  1  0
  2  9  1  0
  2  3  1  0
  2  4  1  0
  3 25  1  0
  3 26  1  0
  3 27  1  0
  4  5  1  0
  4 28  1  0
  4 29  1  0
  5  6  2  0
  5  7  1  0
  7 16  1  0
  7  8  2  0
  8  9  1  0
  8 10  1  0
  9 30  1  0
  9 31  1  0
 10 11  1  0
 11 12  2  3
 11 13  1  0
 12 37  1  0
 13 14  1  0
 13 16  1  0
 13 32  1  6
 14 15  3  0
 16 17  1  0
 16 33  1  1
 17 21  1  0
 17 18  2  0
 18 19  1  0
 18 34  1  0
 19 20  2  0
 19 35  1  0
 20 21  1  0
 20 36  1  0
M  END
>  <i_m_ct_stereo_status>  (92) 
1

>  <s_m_source_file>  (92) 
/var/tmp/pbs.5076255.sched01/tmpmmp70uc3/38qnywpnyg.sdf

>  <i_m_source_file_index>  (92) 
4

>  <i_lp_mmshare_version>  (92) 
48012

>  <i_f3d_flags>  (92) 
0

>  <s_epik_input>  (92) 
Tz1DMVtDSDJdQyhbQ0gzXSkoW0NIM10pW0NIMl1DKD1DMTIpTy9DKD1OXFtIXSlbQ0BASF0oQyNOKVtDQEhdMmMzW2NIXVtjSF1bY0hdbzM=

>  <s_epik_cmdline>  (92) 
J2VwaWtfcHl0aG9uJywgJy1waHQnLCAnMi4wJywgJy1waCcsICc3LjAnLCAnLXRuJywgJzgnLCAnLW1hJywgJzIwMCcsICctaW1hZScsICc8aW5maWxlLm1hZT4nLCAnLW9tYWUnLCAnPG91dGZpbGUubWFlPic=

>  <r_epik_Ionization_Penalty>  (92) 
0.0388016

>  <r_epik_Ionization_Penalty_Charging>  (92) 
0

>  <r_epik_Ionization_Penalty_Neutral>  (92) 
0.0388016

>  <r_epik_State_Penalty>  (92) 
0.828509

>  <r_epik_Charging_Adjusted_Penalty>  (92) 
0.828509

>  <i_epik_Tot_Q>  (92) 
0

>  <i_epik_Tot_abs_Q>  (92) 
0

>  <s_epik_Chemistry_Notes>  (92) 
This compound has an imine and may undergo hydrolysis.

>  <s_lp_Force_Field>  (92) 
OPLS3e

>  <r_lp_Energy>  (92) 
7.53407

>  <b_lp_Chiralities_Consistent>  (92) 
1

>  <s_lp_Variant>  (92) 
30:0-1

>  <s_i_glide_gridfile>  (92) 
pfpi4k_grid

>  <i_i_glide_lignum>  (92) 
4

>  <i_i_glide_rotatable_bonds>  (92) 
2

>  <r_i_docking_score>  (92) 
-3.28763

>  <r_i_glide_ligand_efficiency>  (92) 
-0.156554

>  <r_i_glide_ligand_efficiency_sa>  (92) 
-0.431921

>  <r_i_glide_ligand_efficiency_ln>  (92) 
-0.812861

>  <r_i_glide_gscore>  (92) 
-3.28763

>  <r_i_glide_lipo>  (92) 
-0.208718

>  <r_i_glide_hbond>  (92) 
-0.0927237

>  <r_i_glide_metal>  (92) 
-0

>  <r_i_glide_rewards>  (92) 
-1.47061

>  <r_i_glide_evdw>  (92) 
-21.1299

>  <r_i_glide_ecoul>  (92) 
-4.35589

>  <r_i_glide_erotb>  (92) 
0.224229

>  <r_i_glide_esite>  (92) 
-0.0299307

>  <r_i_glide_emodel>  (92) 
-30.7978

>  <r_i_glide_energy>  (92) 
-25.4858

>  <r_i_glide_einternal>  (92) 
0.78756

>  <r_i_glide_intrahb_reward>  (92) 
-0

>  <i_i_glide_confnum>  (92) 
6

>  <i_i_glide_posenum>  (92) 
14

>  <r_i_glide_eff_state_penalty>  (92) 
0

>  <ligand_id>  (92) 
30

>  <original_smiles>  (92) 
CC1(C)CC(=O)C2=C(C1)OC(=N)C(C#N)C2c1ccco1

>  <smiles>  (92) 
[H]N=C1OC2=C(C(=O)C([H])([H])C(C([H])([H])[H])(C([H])([H])[H])C2([H])[H])C([H])(c2oc([H])c([H])c2[H])C1([H])C#N

$$$$
30:1:0
     RDKit          3D

 37 39  0  0  1  0  0  0  0  0999 V2000
    4.4441   -0.8721   -2.0691 C   0  0  0  0  0  0  0  0  0  0  0  0
    4.2457   -2.3524   -2.4625 C   0  0  0  0  0  0  0  0  0  0  0  0
    3.7337   -2.4079   -3.9122 C   0  0  0  0  0  0  0  0  0  0  0  0
    5.5683   -3.1509   -2.3649 C   0  0  0  0  0  0  0  0  0  0  0  0
    6.0612   -3.3150   -0.9199 C   0  0  0  0  0  0  0  0  0  0  0  0
    7.2708   -3.3485   -0.7068 O   0  0  0  0  0  0  0  0  0  0  0  0
    5.0392   -3.4303    0.1493 C   0  0  0  0  0  0  0  0  0  0  0  0
    3.7329   -3.2630   -0.1405 C   0  0  0  0  0  0  0  0  0  0  0  0
    3.2020   -3.0000   -1.5373 C   0  0  0  0  0  0  0  0  0  0  0  0
    2.7164   -3.2986    0.7931 O   0  0  0  0  0  0  0  0  0  0  0  0
    3.0063   -3.4508    2.1311 C   0  0  0  0  0  0  0  0  0  0  0  0
    2.1024   -3.8144    2.9342 N   0  0  0  0  0  0  0  0  0  0  0  0
    4.4349   -3.1105    2.5434 C   0  0  1  0  0  0  0  0  0  0  0  0
    4.6929   -3.4203    3.9615 C   0  0  0  0  0  0  0  0  0  0  0  0
    4.8947   -3.6581    5.0749 N   0  0  0  0  0  0  0  0  0  0  0  0
    5.5009   -3.6599    1.5755 C   0  0  1  0  0  0  0  0  0  0  0  0
    5.8519   -5.0959    1.8101 C   0  0  0  0  0  0  0  0  0  0  0  0
    5.5840   -6.2517    1.1329 C   0  0  0  0  0  0  0  0  0  0  0  0
    6.2118   -7.2977    1.8667 C   0  0  0  0  0  0  0  0  0  0  0  0
    6.8119   -6.6994    2.9361 C   0  0  0  0  0  0  0  0  0  0  0  0
    6.6042   -5.3555    2.9178 O   0  0  0  0  0  0  0  0  0  0  0  0
    5.1817   -0.3727   -2.6939 H   0  0  0  0  0  0  0  0  0  0  0  0
    4.7570   -0.7634   -1.0257 H   0  0  0  0  0  0  0  0  0  0  0  0
    3.5051   -0.3360   -2.1862 H   0  0  0  0  0  0  0  0  0  0  0  0
    3.5864   -3.4440   -4.2263 H   0  0  0  0  0  0  0  0  0  0  0  0
    4.4379   -1.9391   -4.5988 H   0  0  0  0  0  0  0  0  0  0  0  0
    2.7762   -1.8994   -4.0141 H   0  0  0  0  0  0  0  0  0  0  0  0
    5.4373   -4.1462   -2.7975 H   0  0  0  0  0  0  0  0  0  0  0  0
    6.3480   -2.6574   -2.9385 H   0  0  0  0  0  0  0  0  0  0  0  0
    2.2974   -2.3937   -1.4864 H   0  0  0  0  0  0  0  0  0  0  0  0
    2.9020   -3.9594   -1.9518 H   0  0  0  0  0  0  0  0  0  0  0  0
    1.2265   -3.9535    2.4587 H   0  0  0  0  0  0  0  0  0  0  0  0
    4.4906   -2.0225    2.4928 H   0  0  0  0  0  0  0  0  0  0  0  0
    6.4024   -3.0646    1.7370 H   0  0  0  0  0  0  0  0  0  0  0  0
    5.0153   -6.3162    0.2155 H   0  0  0  0  0  0  0  0  0  0  0  0
    6.2343   -8.3526    1.6478 H   0  0  0  0  0  0  0  0  0  0  0  0
    7.4010   -7.0586    3.7652 H   0  0  0  0  0  0  0  0  0  0  0  0
  1  2  1  0
  1 22  1  0
  1 23  1  0
  1 24  1  0
  2  9  1  0
  2  3  1  0
  2  4  1  0
  3 25  1  0
  3 26  1  0
  3 27  1  0
  4  5  1  0
  4 28  1  0
  4 29  1  0
  5  6  2  0
  5  7  1  0
  7 16  1  0
  7  8  2  0
  8  9  1  0
  8 10  1  0
  9 30  1  0
  9 31  1  0
 10 11  1  0
 11 12  2  3
 11 13  1  0
 12 32  1  0
 13 14  1  0
 13 16  1  0
 13 33  1  1
 14 15  3  0
 16 17  1  0
 16 34  1  6
 17 21  1  0
 17 18  2  0
 18 19  1  0
 18 35  1  0
 19 20  2  0
 19 36  1  0
 20 21  1  0
 20 37  1  0
M  END
>  <i_m_ct_stereo_status>  (93) 
1

>  <s_m_source_file>  (93) 
/var/tmp/pbs.5076255.sched01/tmpmmp70uc3/38qnywpnyg.sdf

>  <i_m_source_file_index>  (93) 
5

>  <i_lp_mmshare_version>  (93) 
48012

>  <i_f3d_flags>  (93) 
0

>  <s_epik_input>  (93) 
Tz1DMVtDSDJdQyhbQ0gzXSkoW0NIM10pW0NIMl1DKD1DMTIpTy9DKD1OXFtIXSlbQ0BASF0oQyNOKVtDQEhdMmMzW2NIXVtjSF1bY0hdbzM=

>  <s_epik_cmdline>  (93) 
J2VwaWtfcHl0aG9uJywgJy1waHQnLCAnMi4wJywgJy1waCcsICc3LjAnLCAnLXRuJywgJzgnLCAnLW1hJywgJzIwMCcsICctaW1hZScsICc8aW5maWxlLm1hZT4nLCAnLW9tYWUnLCAnPG91dGZpbGUubWFlPic=

>  <r_epik_Ionization_Penalty>  (93) 
0.0388016

>  <r_epik_Ionization_Penalty_Charging>  (93) 
0

>  <r_epik_Ionization_Penalty_Neutral>  (93) 
0.0388016

>  <r_epik_State_Penalty>  (93) 
0.828509

>  <r_epik_Charging_Adjusted_Penalty>  (93) 
0.828509

>  <i_epik_Tot_Q>  (93) 
0

>  <i_epik_Tot_abs_Q>  (93) 
0

>  <s_epik_Chemistry_Notes>  (93) 
This compound has an imine and may undergo hydrolysis.

>  <s_lp_Force_Field>  (93) 
OPLS3e

>  <r_lp_Energy>  (93) 
8.37701

>  <b_lp_Chiralities_Consistent>  (93) 
1

>  <s_lp_Variant>  (93) 
30:0-2

>  <s_i_glide_gridfile>  (93) 
pfpi4k_grid

>  <i_i_glide_lignum>  (93) 
5

>  <i_i_glide_rotatable_bonds>  (93) 
2

>  <r_i_docking_score>  (93) 
-3.63633

>  <r_i_glide_ligand_efficiency>  (93) 
-0.173159

>  <r_i_glide_ligand_efficiency_sa>  (93) 
-0.477732

>  <r_i_glide_ligand_efficiency_ln>  (93) 
-0.899076

>  <r_i_glide_gscore>  (93) 
-3.63633

>  <r_i_glide_lipo>  (93) 
-0.689566

>  <r_i_glide_hbond>  (93) 
0

>  <r_i_glide_metal>  (93) 
-0

>  <r_i_glide_rewards>  (93) 
-1.64481

>  <r_i_glide_evdw>  (93) 
-23.6154

>  <r_i_glide_ecoul>  (93) 
-2.29693

>  <r_i_glide_erotb>  (93) 
0.224229

>  <r_i_glide_esite>  (93) 
-0.000879275

>  <r_i_glide_emodel>  (93) 
-31.4317

>  <r_i_glide_energy>  (93) 
-25.9124

>  <r_i_glide_einternal>  (93) 
0.83765

>  <r_i_glide_intrahb_reward>  (93) 
-0

>  <i_i_glide_confnum>  (93) 
2

>  <i_i_glide_posenum>  (93) 
7

>  <r_i_glide_eff_state_penalty>  (93) 
0

>  <ligand_id>  (93) 
30

>  <original_smiles>  (93) 
CC1(C)CC(=O)C2=C(C1)OC(=N)C(C#N)C2c1ccco1

>  <smiles>  (93) 
[H]N=C1OC2=C(C(=O)C([H])([H])C(C([H])([H])[H])(C([H])([H])[H])C2([H])[H])C([H])(c2oc([H])c([H])c2[H])C1([H])C#N

$$$$
30:1:1
     RDKit          3D

 37 39  0  0  1  0  0  0  0  0999 V2000
    5.0931   -3.4274   -3.0079 C   0  0  0  0  0  0  0  0  0  0  0  0
    4.0287   -2.3176   -2.8224 C   0  0  0  0  0  0  0  0  0  0  0  0
    3.7804   -1.6082   -4.1618 C   0  0  0  0  0  0  0  0  0  0  0  0
    2.6875   -2.9109   -2.3228 C   0  0  0  0  0  0  0  0  0  0  0  0
    2.7493   -3.4467   -0.8874 C   0  0  0  0  0  0  0  0  0  0  0  0
    2.0043   -4.3686   -0.5620 O   0  0  0  0  0  0  0  0  0  0  0  0
    3.6826   -2.7860    0.0543 C   0  0  0  0  0  0  0  0  0  0  0  0
    4.5012   -1.8013   -0.3835 C   0  0  0  0  0  0  0  0  0  0  0  0
    4.5230   -1.2742   -1.8050 C   0  0  0  0  0  0  0  0  0  0  0  0
    5.4313   -1.1564    0.3964 O   0  0  0  0  0  0  0  0  0  0  0  0
    5.5975   -1.5151    1.7150 C   0  0  0  0  0  0  0  0  0  0  0  0
    6.1661   -0.7257    2.5172 N   0  0  0  0  0  0  0  0  0  0  0  0
    5.1149   -2.9195    2.0833 C   0  0  1  0  0  0  0  0  0  0  0  0
    5.2013   -3.1893    3.5296 C   0  0  0  0  0  0  0  0  0  0  0  0
    5.2752   -3.4079    4.6648 N   0  0  0  0  0  0  0  0  0  0  0  0
    3.7420   -3.2759    1.4887 C   0  0  1  0  0  0  0  0  0  0  0  0
    2.6022   -2.7395    2.3007 C   0  0  0  0  0  0  0  0  0  0  0  0
    1.7713   -3.2817    3.2449 C   0  0  0  0  0  0  0  0  0  0  0  0
    0.8704   -2.2444    3.6182 C   0  0  0  0  0  0  0  0  0  0  0  0
    1.2248   -1.1500    2.8813 C   0  0  0  0  0  0  0  0  0  0  0  0
    2.2951   -1.4283    2.0935 O   0  0  0  0  0  0  0  0  0  0  0  0
    4.7601   -4.1917   -3.7134 H   0  0  0  0  0  0  0  0  0  0  0  0
    5.3178   -3.9342   -2.0668 H   0  0  0  0  0  0  0  0  0  0  0  0
    6.0358   -3.0189   -3.3765 H   0  0  0  0  0  0  0  0  0  0  0  0
    3.0244   -0.8288   -4.0595 H   0  0  0  0  0  0  0  0  0  0  0  0
    3.4118   -2.3177   -4.8981 H   0  0  0  0  0  0  0  0  0  0  0  0
    4.6823   -1.1361   -4.5484 H   0  0  0  0  0  0  0  0  0  0  0  0
    1.9122   -2.1418   -2.3456 H   0  0  0  0  0  0  0  0  0  0  0  0
    2.3532   -3.7094   -2.9855 H   0  0  0  0  0  0  0  0  0  0  0  0
    5.5285   -0.9308   -2.0526 H   0  0  0  0  0  0  0  0  0  0  0  0
    3.8702   -0.4011   -1.8352 H   0  0  0  0  0  0  0  0  0  0  0  0
    6.4988    0.1186    2.0713 H   0  0  0  0  0  0  0  0  0  0  0  0
    5.8431   -3.5976    1.6344 H   0  0  0  0  0  0  0  0  0  0  0  0
    3.6721   -4.3656    1.4856 H   0  0  0  0  0  0  0  0  0  0  0  0
    1.7976   -4.3016    3.5921 H   0  0  0  0  0  0  0  0  0  0  0  0
    0.0402   -2.2949    4.3072 H   0  0  0  0  0  0  0  0  0  0  0  0
    0.8286   -0.1497    2.7800 H   0  0  0  0  0  0  0  0  0  0  0  0
  1  2  1  0
  1 22  1  0
  1 23  1  0
  1 24  1  0
  2  9  1  0
  2  3  1  0
  2  4  1  0
  3 25  1  0
  3 26  1  0
  3 27  1  0
  4  5  1  0
  4 28  1  0
  4 29  1  0
  5  6  2  0
  5  7  1  0
  7 16  1  0
  7  8  2  0
  8  9  1  0
  8 10  1  0
  9 30  1  0
  9 31  1  0
 10 11  1  0
 11 12  2  3
 11 13  1  0
 12 32  1  0
 13 14  1  0
 13 16  1  0
 13 33  1  6
 14 15  3  0
 16 17  1  0
 16 34  1  6
 17 21  1  0
 17 18  2  0
 18 19  1  0
 18 35  1  0
 19 20  2  0
 19 36  1  0
 20 21  1  0
 20 37  1  0
M  END
>  <i_m_ct_stereo_status>  (94) 
1

>  <s_m_source_file>  (94) 
/var/tmp/pbs.5076255.sched01/tmpmmp70uc3/38qnywpnyg.sdf

>  <i_m_source_file_index>  (94) 
5

>  <i_lp_mmshare_version>  (94) 
48012

>  <i_f3d_flags>  (94) 
0

>  <s_epik_input>  (94) 
Tz1DMVtDSDJdQyhbQ0gzXSkoW0NIM10pW0NIMl1DKD1DMTIpTy9DKD1OXFtIXSlbQ0BASF0oQyNOKVtDQEhdMmMzW2NIXVtjSF1bY0hdbzM=

>  <s_epik_cmdline>  (94) 
J2VwaWtfcHl0aG9uJywgJy1waHQnLCAnMi4wJywgJy1waCcsICc3LjAnLCAnLXRuJywgJzgnLCAnLW1hJywgJzIwMCcsICctaW1hZScsICc8aW5maWxlLm1hZT4nLCAnLW9tYWUnLCAnPG91dGZpbGUubWFlPic=

>  <r_epik_Ionization_Penalty>  (94) 
0.0388016

>  <r_epik_Ionization_Penalty_Charging>  (94) 
0

>  <r_epik_Ionization_Penalty_Neutral>  (94) 
0.0388016

>  <r_epik_State_Penalty>  (94) 
0.828509

>  <r_epik_Charging_Adjusted_Penalty>  (94) 
0.828509

>  <i_epik_Tot_Q>  (94) 
0

>  <i_epik_Tot_abs_Q>  (94) 
0

>  <s_epik_Chemistry_Notes>  (94) 
This compound has an imine and may undergo hydrolysis.

>  <s_lp_Force_Field>  (94) 
OPLS3e

>  <r_lp_Energy>  (94) 
8.37701

>  <b_lp_Chiralities_Consistent>  (94) 
1

>  <s_lp_Variant>  (94) 
30:0-2

>  <s_i_glide_gridfile>  (94) 
pfpi4k_grid

>  <i_i_glide_lignum>  (94) 
5

>  <i_i_glide_rotatable_bonds>  (94) 
2

>  <r_i_docking_score>  (94) 
-3.57582

>  <r_i_glide_ligand_efficiency>  (94) 
-0.170277

>  <r_i_glide_ligand_efficiency_sa>  (94) 
-0.469781

>  <r_i_glide_ligand_efficiency_ln>  (94) 
-0.884113

>  <r_i_glide_gscore>  (94) 
-3.57582

>  <r_i_glide_lipo>  (94) 
-0.43916

>  <r_i_glide_hbond>  (94) 
-0.306713

>  <r_i_glide_metal>  (94) 
-0

>  <r_i_glide_rewards>  (94) 
-1.71129

>  <r_i_glide_evdw>  (94) 
-23.1638

>  <r_i_glide_ecoul>  (94) 
-1.22533

>  <r_i_glide_erotb>  (94) 
0.224229

>  <r_i_glide_esite>  (94) 
-0.000896749

>  <r_i_glide_emodel>  (94) 
-29.6953

>  <r_i_glide_energy>  (94) 
-24.3891

>  <r_i_glide_einternal>  (94) 
0.994325

>  <r_i_glide_intrahb_reward>  (94) 
-0

>  <i_i_glide_confnum>  (94) 
4

>  <i_i_glide_posenum>  (94) 
3

>  <r_i_glide_eff_state_penalty>  (94) 
0

>  <ligand_id>  (94) 
30

>  <original_smiles>  (94) 
CC1(C)CC(=O)C2=C(C1)OC(=N)C(C#N)C2c1ccco1

>  <smiles>  (94) 
[H]N=C1OC2=C(C(=O)C([H])([H])C(C([H])([H])[H])(C([H])([H])[H])C2([H])[H])C([H])(c2oc([H])c([H])c2[H])C1([H])C#N

$$$$
30:1:2
     RDKit          3D

 37 39  0  0  1  0  0  0  0  0999 V2000
    4.4406   -3.8330   -3.7215 C   0  0  0  0  0  0  0  0  0  0  0  0
    4.1984   -2.5570   -2.8809 C   0  0  0  0  0  0  0  0  0  0  0  0
    3.9272   -1.3669   -3.8208 C   0  0  0  0  0  0  0  0  0  0  0  0
    2.9824   -2.7201   -1.9350 C   0  0  0  0  0  0  0  0  0  0  0  0
    3.1983   -3.7180   -0.7876 C   0  0  0  0  0  0  0  0  0  0  0  0
    2.2230   -4.3044   -0.3192 O   0  0  0  0  0  0  0  0  0  0  0  0
    4.5802   -3.8966   -0.2852 C   0  0  0  0  0  0  0  0  0  0  0  0
    5.5985   -3.2220   -0.8626 C   0  0  0  0  0  0  0  0  0  0  0  0
    5.4405   -2.2559   -2.0218 C   0  0  0  0  0  0  0  0  0  0  0  0
    6.9149   -3.3230   -0.4779 O   0  0  0  0  0  0  0  0  0  0  0  0
    7.3006   -4.2301    0.4831 C   0  0  0  0  0  0  0  0  0  0  0  0
    8.4414   -4.1231    1.0151 N   0  0  0  0  0  0  0  0  0  0  0  0
    6.3005   -5.3455    0.7960 C   0  0  1  0  0  0  0  0  0  0  0  0
    6.6959   -6.1462    1.9682 C   0  0  0  0  0  0  0  0  0  0  0  0
    7.0099   -6.7835    2.8846 N   0  0  0  0  0  0  0  0  0  0  0  0
    4.8301   -4.8758    0.8420 C   0  0  1  0  0  0  0  0  0  0  0  0
    4.4298   -4.2855    2.1571 C   0  0  0  0  0  0  0  0  0  0  0  0
    3.5629   -4.6699    3.1464 C   0  0  0  0  0  0  0  0  0  0  0  0
    3.6073   -3.6440    4.1284 C   0  0  0  0  0  0  0  0  0  0  0  0
    4.4980   -2.7148    3.6701 C   0  0  0  0  0  0  0  0  0  0  0  0
    5.0133   -3.0963    2.4736 O   0  0  0  0  0  0  0  0  0  0  0  0
    3.5621   -4.0880   -4.3190 H   0  0  0  0  0  0  0  0  0  0  0  0
    4.6543   -4.6871   -3.0829 H   0  0  0  0  0  0  0  0  0  0  0  0
    5.2979   -3.7393   -4.3856 H   0  0  0  0  0  0  0  0  0  0  0  0
    3.7578   -0.4525   -3.2494 H   0  0  0  0  0  0  0  0  0  0  0  0
    3.0446   -1.5326   -4.4384 H   0  0  0  0  0  0  0  0  0  0  0  0
    4.7678   -1.1791   -4.4864 H   0  0  0  0  0  0  0  0  0  0  0  0
    2.7432   -1.7548   -1.4794 H   0  0  0  0  0  0  0  0  0  0  0  0
    2.1023   -3.0204   -2.5052 H   0  0  0  0  0  0  0  0  0  0  0  0
    6.3434   -2.2848   -2.6329 H   0  0  0  0  0  0  0  0  0  0  0  0
    5.3600   -1.2563   -1.5929 H   0  0  0  0  0  0  0  0  0  0  0  0
    8.9180   -3.2906    0.7029 H   0  0  0  0  0  0  0  0  0  0  0  0
    6.3808   -6.0371   -0.0407 H   0  0  0  0  0  0  0  0  0  0  0  0
    4.2163   -5.7621    0.6692 H   0  0  0  0  0  0  0  0  0  0  0  0
    2.9689   -5.5708    3.1456 H   0  0  0  0  0  0  0  0  0  0  0  0
    3.0562   -3.5836    5.0568 H   0  0  0  0  0  0  0  0  0  0  0  0
    4.8612   -1.7730    4.0526 H   0  0  0  0  0  0  0  0  0  0  0  0
  1  2  1  0
  1 22  1  0
  1 23  1  0
  1 24  1  0
  2  9  1  0
  2  3  1  0
  2  4  1  0
  3 25  1  0
  3 26  1  0
  3 27  1  0
  4  5  1  0
  4 28  1  0
  4 29  1  0
  5  6  2  0
  5  7  1  0
  7 16  1  0
  7  8  2  0
  8  9  1  0
  8 10  1  0
  9 30  1  0
  9 31  1  0
 10 11  1  0
 11 12  2  3
 11 13  1  0
 12 32  1  0
 13 14  1  0
 13 16  1  0
 13 33  1  6
 14 15  3  0
 16 17  1  0
 16 34  1  6
 17 21  1  0
 17 18  2  0
 18 19  1  0
 18 35  1  0
 19 20  2  0
 19 36  1  0
 20 21  1  0
 20 37  1  0
M  END
>  <i_m_ct_stereo_status>  (95) 
1

>  <s_m_source_file>  (95) 
/var/tmp/pbs.5076255.sched01/tmpmmp70uc3/38qnywpnyg.sdf

>  <i_m_source_file_index>  (95) 
5

>  <i_lp_mmshare_version>  (95) 
48012

>  <i_f3d_flags>  (95) 
0

>  <s_epik_input>  (95) 
Tz1DMVtDSDJdQyhbQ0gzXSkoW0NIM10pW0NIMl1DKD1DMTIpTy9DKD1OXFtIXSlbQ0BASF0oQyNOKVtDQEhdMmMzW2NIXVtjSF1bY0hdbzM=

>  <s_epik_cmdline>  (95) 
J2VwaWtfcHl0aG9uJywgJy1waHQnLCAnMi4wJywgJy1waCcsICc3LjAnLCAnLXRuJywgJzgnLCAnLW1hJywgJzIwMCcsICctaW1hZScsICc8aW5maWxlLm1hZT4nLCAnLW9tYWUnLCAnPG91dGZpbGUubWFlPic=

>  <r_epik_Ionization_Penalty>  (95) 
0.0388016

>  <r_epik_Ionization_Penalty_Charging>  (95) 
0

>  <r_epik_Ionization_Penalty_Neutral>  (95) 
0.0388016

>  <r_epik_State_Penalty>  (95) 
0.828509

>  <r_epik_Charging_Adjusted_Penalty>  (95) 
0.828509

>  <i_epik_Tot_Q>  (95) 
0

>  <i_epik_Tot_abs_Q>  (95) 
0

>  <s_epik_Chemistry_Notes>  (95) 
This compound has an imine and may undergo hydrolysis.

>  <s_lp_Force_Field>  (95) 
OPLS3e

>  <r_lp_Energy>  (95) 
8.37701

>  <b_lp_Chiralities_Consistent>  (95) 
1

>  <s_lp_Variant>  (95) 
30:0-2

>  <s_i_glide_gridfile>  (95) 
pfpi4k_grid

>  <i_i_glide_lignum>  (95) 
5

>  <i_i_glide_rotatable_bonds>  (95) 
2

>  <r_i_docking_score>  (95) 
-3.40247

>  <r_i_glide_ligand_efficiency>  (95) 
-0.162022

>  <r_i_glide_ligand_efficiency_sa>  (95) 
-0.447007

>  <r_i_glide_ligand_efficiency_ln>  (95) 
-0.841253

>  <r_i_glide_gscore>  (95) 
-3.40247

>  <r_i_glide_lipo>  (95) 
-0.52239

>  <r_i_glide_hbond>  (95) 
0

>  <r_i_glide_metal>  (95) 
-0

>  <r_i_glide_rewards>  (95) 
-1.74583

>  <r_i_glide_evdw>  (95) 
-24.8813

>  <r_i_glide_ecoul>  (95) 
-0.762752

>  <r_i_glide_erotb>  (95) 
0.224229

>  <r_i_glide_esite>  (95) 
0

>  <r_i_glide_emodel>  (95) 
-30.8243

>  <r_i_glide_energy>  (95) 
-25.6441

>  <r_i_glide_einternal>  (95) 
0.675648

>  <r_i_glide_intrahb_reward>  (95) 
-0

>  <i_i_glide_confnum>  (95) 
4

>  <i_i_glide_posenum>  (95) 
11

>  <r_i_glide_eff_state_penalty>  (95) 
0

>  <ligand_id>  (95) 
30

>  <original_smiles>  (95) 
CC1(C)CC(=O)C2=C(C1)OC(=N)C(C#N)C2c1ccco1

>  <smiles>  (95) 
[H]N=C1OC2=C(C(=O)C([H])([H])C(C([H])([H])[H])(C([H])([H])[H])C2([H])[H])C([H])(c2oc([H])c([H])c2[H])C1([H])C#N

$$$$
30:2:0
     RDKit          3D

 37 39  0  0  1  0  0  0  0  0999 V2000
    1.8510   -2.9379    2.8837 C   0  0  0  0  0  0  0  0  0  0  0  0
    2.8515   -2.1339    3.7510 C   0  0  0  0  0  0  0  0  0  0  0  0
    4.0104   -3.0559    4.1728 C   0  0  0  0  0  0  0  0  0  0  0  0
    3.4336   -0.9321    2.9746 C   0  0  0  0  0  0  0  0  0  0  0  0
    2.3986    0.1617    2.6813 C   0  0  0  0  0  0  0  0  0  0  0  0
    2.5488    0.8279    1.6661 O   0  0  0  0  0  0  0  0  0  0  0  0
    1.2974    0.3714    3.6563 C   0  0  0  0  0  0  0  0  0  0  0  0
    1.1926   -0.4587    4.7138 C   0  0  0  0  0  0  0  0  0  0  0  0
    2.1420   -1.6068    5.0152 C   0  0  0  0  0  0  0  0  0  0  0  0
    0.1853   -0.3864    5.6370 O   0  0  0  0  0  0  0  0  0  0  0  0
   -0.7798    0.5794    5.5545 C   0  0  0  0  0  0  0  0  0  0  0  0
   -1.8210    0.2358    6.3306 N   0  0  0  0  0  0  0  0  0  0  0  0
   -1.0305    1.1863    4.1704 C   0  0  1  0  0  0  0  0  0  0  0  0
   -1.9213    2.3596    4.2232 C   0  0  0  0  0  0  0  0  0  0  0  0
   -2.6065    3.2905    4.2673 N   0  0  0  0  0  0  0  0  0  0  0  0
    0.2867    1.4814    3.4078 C   0  0  1  0  0  0  0  0  0  0  0  0
    0.8898    2.8120    3.7596 C   0  0  0  0  0  0  0  0  0  0  0  0
    0.7374    3.6831    4.8081 C   0  0  0  0  0  0  0  0  0  0  0  0
    1.6174    4.7711    4.5609 C   0  0  0  0  0  0  0  0  0  0  0  0
    2.2565    4.4797    3.3895 C   0  0  0  0  0  0  0  0  0  0  0  0
    1.8264    3.2912    2.8961 O   0  0  0  0  0  0  0  0  0  0  0  0
    2.3183   -3.3063    1.9675 H   0  0  0  0  0  0  0  0  0  0  0  0
    0.9907   -2.3335    2.5861 H   0  0  0  0  0  0  0  0  0  0  0  0
    1.4609   -3.8020    3.4279 H   0  0  0  0  0  0  0  0  0  0  0  0
    4.7335   -2.5111    4.7804 H   0  0  0  0  0  0  0  0  0  0  0  0
    4.5425   -3.4524    3.3088 H   0  0  0  0  0  0  0  0  0  0  0  0
    3.6537   -3.8997    4.7656 H   0  0  0  0  0  0  0  0  0  0  0  0
    4.2456   -0.4755    3.5426 H   0  0  0  0  0  0  0  0  0  0  0  0
    3.8626   -1.2725    2.0342 H   0  0  0  0  0  0  0  0  0  0  0  0
    1.5944   -2.4073    5.5181 H   0  0  0  0  0  0  0  0  0  0  0  0
    2.8866   -1.2303    5.7192 H   0  0  0  0  0  0  0  0  0  0  0  0
   -2.5918    0.8682    6.0785 H   0  0  0  0  0  0  0  0  0  0  0  0
    0.0473    1.4981    2.3449 H   0  0  0  0  0  0  0  0  0  0  0  0
    0.0678    3.5517    5.6455 H   0  0  0  0  0  0  0  0  0  0  0  0
    1.7720    5.6578    5.1582 H   0  0  0  0  0  0  0  0  0  0  0  0
    3.0013    4.9802    2.7898 H   0  0  0  0  0  0  0  0  0  0  0  0
   -1.5807    0.4311    3.6127 H   0  0  0  0  0  0  0  0  0  0  0  0
  1  2  1  0
  1 22  1  0
  1 23  1  0
  1 24  1  0
  2  9  1  0
  2  3  1  0
  2  4  1  0
  3 25  1  0
  3 26  1  0
  3 27  1  0
  4  5  1  0
  4 28  1  0
  4 29  1  0
  5  6  2  0
  5  7  1  0
  7 16  1  0
  7  8  2  0
  8  9  1  0
  8 10  1  0
  9 30  1  0
  9 31  1  0
 10 11  1  0
 11 12  1  0
 11 13  1  0
 12 32  1  0
 13 14  1  0
 13 16  1  0
 13 37  1  6
 14 15  3  0
 16 17  1  0
 16 33  1  6
 17 21  1  0
 17 18  2  0
 18 19  1  0
 18 34  1  0
 19 20  2  0
 19 35  1  0
 20 21  1  0
 20 36  1  0
M  CHG  2  11   1  12  -1
M  END
>  <i_m_ct_stereo_status>  (96) 
1

>  <s_m_source_file>  (96) 
/var/tmp/pbs.5076255.sched01/tmpmmp70uc3/38qnywpnyg.sdf

>  <i_m_source_file_index>  (96) 
6

>  <i_lp_mmshare_version>  (96) 
48012

>  <i_f3d_flags>  (96) 
0

>  <s_epik_input>  (96) 
Tz1DMVtDSDJdQyhbQ0gzXSkoW0NIM10pW0NIMl1DKD1DMTIpTy9DKD1OXFtIXSlbQ0BASF0oQyNOKVtDQEhdMmMzW2NIXVtjSF1bY0hdbzM=

>  <s_epik_cmdline>  (96) 
J2VwaWtfcHl0aG9uJywgJy1waHQnLCAnMi4wJywgJy1waCcsICc3LjAnLCAnLXRuJywgJzgnLCAnLW1hJywgJzIwMCcsICctaW1hZScsICc8aW5maWxlLm1hZT4nLCAnLW9tYWUnLCAnPG91dGZpbGUubWFlPic=

>  <r_epik_Ionization_Penalty>  (96) 
3.4263e-10

>  <r_epik_Ionization_Penalty_Charging>  (96) 
0

>  <r_epik_Ionization_Penalty_Neutral>  (96) 
3.4263e-10

>  <r_epik_State_Penalty>  (96) 
0.828509

>  <r_epik_Charging_Adjusted_Penalty>  (96) 
0.828509

>  <i_epik_Tot_Q>  (96) 
0

>  <i_epik_Tot_abs_Q>  (96) 
2

>  <s_lp_Force_Field>  (96) 
OPLS3e

>  <r_lp_Energy>  (96) 
11.5182

>  <b_lp_Chiralities_Consistent>  (96) 
1

>  <s_lp_Variant>  (96) 
30:0-3

>  <s_i_glide_gridfile>  (96) 
pfpi4k_grid

>  <i_i_glide_lignum>  (96) 
6

>  <i_i_glide_rotatable_bonds>  (96) 
2

>  <r_i_docking_score>  (96) 
-4.29651

>  <r_i_glide_ligand_efficiency>  (96) 
-0.204596

>  <r_i_glide_ligand_efficiency_sa>  (96) 
-0.564465

>  <r_i_glide_ligand_efficiency_ln>  (96) 
-1.0623

>  <r_i_glide_gscore>  (96) 
-4.29651

>  <r_i_glide_lipo>  (96) 
-0.00127457

>  <r_i_glide_hbond>  (96) 
-0.16

>  <r_i_glide_metal>  (96) 
-0

>  <r_i_glide_rewards>  (96) 
-1.47061

>  <r_i_glide_evdw>  (96) 
-18.679

>  <r_i_glide_ecoul>  (96) 
-12.8055

>  <r_i_glide_erotb>  (96) 
0.224229

>  <r_i_glide_esite>  (96) 
-0.0340809

>  <r_i_glide_emodel>  (96) 
-39.9702

>  <r_i_glide_energy>  (96) 
-31.4845

>  <r_i_glide_einternal>  (96) 
1.69405

>  <r_i_glide_intrahb_reward>  (96) 
-0

>  <i_i_glide_confnum>  (96) 
3

>  <i_i_glide_posenum>  (96) 
31

>  <r_i_glide_eff_state_penalty>  (96) 
0

>  <ligand_id>  (96) 
30

>  <original_smiles>  (96) 
CC1(C)CC(=O)C2=C(C1)OC(=N)C(C#N)C2c1ccco1

>  <smiles>  (96) 
[H][N-][C+]1OC2=C(C(=O)C([H])([H])C(C([H])([H])[H])(C([H])([H])[H])C2([H])[H])C([H])(c2oc([H])c([H])c2[H])C1([H])C#N

$$$$
30:2:1
     RDKit          3D

 37 39  0  0  1  0  0  0  0  0999 V2000
    3.1832   -0.7175    4.0475 C   0  0  0  0  0  0  0  0  0  0  0  0
    1.9854   -0.9738    3.0996 C   0  0  0  0  0  0  0  0  0  0  0  0
    1.7838    0.2656    2.2063 C   0  0  0  0  0  0  0  0  0  0  0  0
    2.2364   -2.1880    2.1808 C   0  0  0  0  0  0  0  0  0  0  0  0
    2.2592   -3.5203    2.9472 C   0  0  0  0  0  0  0  0  0  0  0  0
    3.0191   -4.3965    2.5393 O   0  0  0  0  0  0  0  0  0  0  0  0
    1.3759   -3.6826    4.1302 C   0  0  0  0  0  0  0  0  0  0  0  0
    0.6889   -2.6010    4.5712 C   0  0  0  0  0  0  0  0  0  0  0  0
    0.7096   -1.2364    3.9201 C   0  0  0  0  0  0  0  0  0  0  0  0
   -0.0839   -2.6114    5.6972 O   0  0  0  0  0  0  0  0  0  0  0  0
   -0.2389   -3.7557    6.4378 C   0  0  0  0  0  0  0  0  0  0  0  0
   -0.7878   -3.4515    7.6258 N   0  0  0  0  0  0  0  0  0  0  0  0
    0.8697   -4.7975    6.3446 C   0  0  1  0  0  0  0  0  0  0  0  0
    0.5643   -6.0372    7.0884 C   0  0  0  0  0  0  0  0  0  0  0  0
    0.3182   -7.0108    7.6724 N   0  0  0  0  0  0  0  0  0  0  0  0
    1.3406   -5.0171    4.8743 C   0  0  1  0  0  0  0  0  0  0  0  0
    0.5024   -6.0211    4.1261 C   0  0  0  0  0  0  0  0  0  0  0  0
   -0.6817   -6.6657    4.3772 C   0  0  0  0  0  0  0  0  0  0  0  0
   -0.9575   -7.4701    3.2365 C   0  0  0  0  0  0  0  0  0  0  0  0
    0.0736   -7.2531    2.3683 C   0  0  0  0  0  0  0  0  0  0  0  0
    0.9679   -6.3711    2.8875 O   0  0  0  0  0  0  0  0  0  0  0  0
    4.1082   -0.5546    3.4955 H   0  0  0  0  0  0  0  0  0  0  0  0
    3.3472   -1.5572    4.7286 H   0  0  0  0  0  0  0  0  0  0  0  0
    2.9944    0.1608    4.6653 H   0  0  0  0  0  0  0  0  0  0  0  0
    0.9539    0.1067    1.5165 H   0  0  0  0  0  0  0  0  0  0  0  0
    2.6648    0.4791    1.6082 H   0  0  0  0  0  0  0  0  0  0  0  0
    1.5481    1.1423    2.8057 H   0  0  0  0  0  0  0  0  0  0  0  0
    1.4749   -2.2476    1.4012 H   0  0  0  0  0  0  0  0  0  0  0  0
    3.1870   -2.0761    1.6776 H   0  0  0  0  0  0  0  0  0  0  0  0
    0.5708   -0.4664    4.6828 H   0  0  0  0  0  0  0  0  0  0  0  0
   -0.1523   -1.1833    3.2474 H   0  0  0  0  0  0  0  0  0  0  0  0
   -0.6128   -4.2532    8.2388 H   0  0  0  0  0  0  0  0  0  0  0  0
    2.3610   -5.3992    4.9159 H   0  0  0  0  0  0  0  0  0  0  0  0
   -1.2746   -6.5614    5.2725 H   0  0  0  0  0  0  0  0  0  0  0  0
   -1.7893   -8.1347    3.0656 H   0  0  0  0  0  0  0  0  0  0  0  0
    0.3235   -7.6341    1.3856 H   0  0  0  0  0  0  0  0  0  0  0  0
    1.7142   -4.3757    6.8923 H   0  0  0  0  0  0  0  0  0  0  0  0
  1  2  1  0
  1 22  1  0
  1 23  1  0
  1 24  1  0
  2  9  1  0
  2  3  1  0
  2  4  1  0
  3 25  1  0
  3 26  1  0
  3 27  1  0
  4  5  1  0
  4 28  1  0
  4 29  1  0
  5  6  2  0
  5  7  1  0
  7 16  1  0
  7  8  2  0
  8  9  1  0
  8 10  1  0
  9 30  1  0
  9 31  1  0
 10 11  1  0
 11 12  1  0
 11 13  1  0
 12 32  1  0
 13 14  1  0
 13 16  1  0
 13 37  1  1
 14 15  3  0
 16 17  1  0
 16 33  1  1
 17 21  1  0
 17 18  2  0
 18 19  1  0
 18 34  1  0
 19 20  2  0
 19 35  1  0
 20 21  1  0
 20 36  1  0
M  CHG  2  11   1  12  -1
M  END
>  <i_m_ct_stereo_status>  (97) 
1

>  <s_m_source_file>  (97) 
/var/tmp/pbs.5076255.sched01/tmpmmp70uc3/38qnywpnyg.sdf

>  <i_m_source_file_index>  (97) 
6

>  <i_lp_mmshare_version>  (97) 
48012

>  <i_f3d_flags>  (97) 
0

>  <s_epik_input>  (97) 
Tz1DMVtDSDJdQyhbQ0gzXSkoW0NIM10pW0NIMl1DKD1DMTIpTy9DKD1OXFtIXSlbQ0BASF0oQyNOKVtDQEhdMmMzW2NIXVtjSF1bY0hdbzM=

>  <s_epik_cmdline>  (97) 
J2VwaWtfcHl0aG9uJywgJy1waHQnLCAnMi4wJywgJy1waCcsICc3LjAnLCAnLXRuJywgJzgnLCAnLW1hJywgJzIwMCcsICctaW1hZScsICc8aW5maWxlLm1hZT4nLCAnLW9tYWUnLCAnPG91dGZpbGUubWFlPic=

>  <r_epik_Ionization_Penalty>  (97) 
3.4263e-10

>  <r_epik_Ionization_Penalty_Charging>  (97) 
0

>  <r_epik_Ionization_Penalty_Neutral>  (97) 
3.4263e-10

>  <r_epik_State_Penalty>  (97) 
0.828509

>  <r_epik_Charging_Adjusted_Penalty>  (97) 
0.828509

>  <i_epik_Tot_Q>  (97) 
0

>  <i_epik_Tot_abs_Q>  (97) 
2

>  <s_lp_Force_Field>  (97) 
OPLS3e

>  <r_lp_Energy>  (97) 
11.5182

>  <b_lp_Chiralities_Consistent>  (97) 
1

>  <s_lp_Variant>  (97) 
30:0-3

>  <s_i_glide_gridfile>  (97) 
pfpi4k_grid

>  <i_i_glide_lignum>  (97) 
6

>  <i_i_glide_rotatable_bonds>  (97) 
2

>  <r_i_docking_score>  (97) 
-3.82816

>  <r_i_glide_ligand_efficiency>  (97) 
-0.182293

>  <r_i_glide_ligand_efficiency_sa>  (97) 
-0.502933

>  <r_i_glide_ligand_efficiency_ln>  (97) 
-0.946504

>  <r_i_glide_gscore>  (97) 
-3.82816

>  <r_i_glide_lipo>  (97) 
-0.040801

>  <r_i_glide_hbond>  (97) 
-0.0250036

>  <r_i_glide_metal>  (97) 
-0

>  <r_i_glide_rewards>  (97) 
-1.47061

>  <r_i_glide_evdw>  (97) 
-18.5393

>  <r_i_glide_ecoul>  (97) 
-10.5646

>  <r_i_glide_erotb>  (97) 
0.224229

>  <r_i_glide_esite>  (97) 
-0.00431782

>  <r_i_glide_emodel>  (97) 
-36.3383

>  <r_i_glide_energy>  (97) 
-29.1038

>  <r_i_glide_einternal>  (97) 
2.0602

>  <r_i_glide_intrahb_reward>  (97) 
-0

>  <i_i_glide_confnum>  (97) 
1

>  <i_i_glide_posenum>  (97) 
28

>  <r_i_glide_eff_state_penalty>  (97) 
0

>  <ligand_id>  (97) 
30

>  <original_smiles>  (97) 
CC1(C)CC(=O)C2=C(C1)OC(=N)C(C#N)C2c1ccco1

>  <smiles>  (97) 
[H][N-][C+]1OC2=C(C(=O)C([H])([H])C(C([H])([H])[H])(C([H])([H])[H])C2([H])[H])C([H])(c2oc([H])c([H])c2[H])C1([H])C#N

$$$$
30:2:2
     RDKit          3D

 37 39  0  0  1  0  0  0  0  0999 V2000
    5.1544   -5.5203    0.0485 C   0  0  0  0  0  0  0  0  0  0  0  0
    4.4460   -4.7211    1.1639 C   0  0  0  0  0  0  0  0  0  0  0  0
    5.1125   -3.3411    1.2989 C   0  0  0  0  0  0  0  0  0  0  0  0
    2.9487   -4.5232    0.8408 C   0  0  0  0  0  0  0  0  0  0  0  0
    2.1368   -5.8238    0.8931 C   0  0  0  0  0  0  0  0  0  0  0  0
    1.1150   -5.8959    0.2104 O   0  0  0  0  0  0  0  0  0  0  0  0
    2.5699   -6.8901    1.8223 C   0  0  0  0  0  0  0  0  0  0  0  0
    3.6930   -6.7154    2.5501 C   0  0  0  0  0  0  0  0  0  0  0  0
    4.5696   -5.4758    2.5008 C   0  0  0  0  0  0  0  0  0  0  0  0
    4.1718   -7.6491    3.4229 O   0  0  0  0  0  0  0  0  0  0  0  0
    3.5026   -8.8235    3.6330 C   0  0  0  0  0  0  0  0  0  0  0  0
    4.3371   -9.6898    4.2130 N   0  0  0  0  0  0  0  0  0  0  0  0
    2.5758   -9.3087    2.5214 C   0  0  1  0  0  0  0  0  0  0  0  0
    1.7668  -10.4681    2.9449 C   0  0  0  0  0  0  0  0  0  0  0  0
    1.1247  -11.3764    3.2811 N   0  0  0  0  0  0  0  0  0  0  0  0
    1.7308   -8.1509    1.9315 C   0  0  1  0  0  0  0  0  0  0  0  0
    0.4759   -7.8772    2.7054 C   0  0  0  0  0  0  0  0  0  0  0  0
    0.1155   -6.9079    3.6036 C   0  0  0  0  0  0  0  0  0  0  0  0
   -1.2159   -7.2072    4.0017 C   0  0  0  0  0  0  0  0  0  0  0  0
   -1.5665   -8.3361    3.3191 C   0  0  0  0  0  0  0  0  0  0  0  0
   -0.5527   -8.7460    2.5138 O   0  0  0  0  0  0  0  0  0  0  0  0
    5.0615   -5.0264   -0.9211 H   0  0  0  0  0  0  0  0  0  0  0  0
    4.7401   -6.5244   -0.0696 H   0  0  0  0  0  0  0  0  0  0  0  0
    6.2188   -5.6416    0.2637 H   0  0  0  0  0  0  0  0  0  0  0  0
    4.6259   -2.7544    2.0773 H   0  0  0  0  0  0  0  0  0  0  0  0
    5.0490   -2.7714    0.3728 H   0  0  0  0  0  0  0  0  0  0  0  0
    6.1648   -3.4334    1.5702 H   0  0  0  0  0  0  0  0  0  0  0  0
    2.5014   -3.8288    1.5537 H   0  0  0  0  0  0  0  0  0  0  0  0
    2.8373   -4.0726   -0.1427 H   0  0  0  0  0  0  0  0  0  0  0  0
    5.6034   -5.7635    2.6959 H   0  0  0  0  0  0  0  0  0  0  0  0
    4.2573   -4.8216    3.3163 H   0  0  0  0  0  0  0  0  0  0  0  0
    3.9118  -10.6215    4.1434 H   0  0  0  0  0  0  0  0  0  0  0  0
    1.4319   -8.4382    0.9242 H   0  0  0  0  0  0  0  0  0  0  0  0
    0.7439   -6.0911    3.9297 H   0  0  0  0  0  0  0  0  0  0  0  0
   -1.8408   -6.6811    4.7089 H   0  0  0  0  0  0  0  0  0  0  0  0
   -2.4491   -8.9590    3.3058 H   0  0  0  0  0  0  0  0  0  0  0  0
    3.2202   -9.6791    1.7232 H   0  0  0  0  0  0  0  0  0  0  0  0
  1  2  1  0
  1 22  1  0
  1 23  1  0
  1 24  1  0
  2  9  1  0
  2  3  1  0
  2  4  1  0
  3 25  1  0
  3 26  1  0
  3 27  1  0
  4  5  1  0
  4 28  1  0
  4 29  1  0
  5  6  2  0
  5  7  1  0
  7 16  1  0
  7  8  2  0
  8  9  1  0
  8 10  1  0
  9 30  1  0
  9 31  1  0
 10 11  1  0
 11 12  1  0
 11 13  1  0
 12 32  1  0
 13 14  1  0
 13 16  1  0
 13 37  1  6
 14 15  3  0
 16 17  1  0
 16 33  1  6
 17 21  1  0
 17 18  2  0
 18 19  1  0
 18 34  1  0
 19 20  2  0
 19 35  1  0
 20 21  1  0
 20 36  1  0
M  CHG  2  11   1  12  -1
M  END
>  <i_m_ct_stereo_status>  (98) 
1

>  <s_m_source_file>  (98) 
/var/tmp/pbs.5076255.sched01/tmpmmp70uc3/38qnywpnyg.sdf

>  <i_m_source_file_index>  (98) 
6

>  <i_lp_mmshare_version>  (98) 
48012

>  <i_f3d_flags>  (98) 
0

>  <s_epik_input>  (98) 
Tz1DMVtDSDJdQyhbQ0gzXSkoW0NIM10pW0NIMl1DKD1DMTIpTy9DKD1OXFtIXSlbQ0BASF0oQyNOKVtDQEhdMmMzW2NIXVtjSF1bY0hdbzM=

>  <s_epik_cmdline>  (98) 
J2VwaWtfcHl0aG9uJywgJy1waHQnLCAnMi4wJywgJy1waCcsICc3LjAnLCAnLXRuJywgJzgnLCAnLW1hJywgJzIwMCcsICctaW1hZScsICc8aW5maWxlLm1hZT4nLCAnLW9tYWUnLCAnPG91dGZpbGUubWFlPic=

>  <r_epik_Ionization_Penalty>  (98) 
3.4263e-10

>  <r_epik_Ionization_Penalty_Charging>  (98) 
0

>  <r_epik_Ionization_Penalty_Neutral>  (98) 
3.4263e-10

>  <r_epik_State_Penalty>  (98) 
0.828509

>  <r_epik_Charging_Adjusted_Penalty>  (98) 
0.828509

>  <i_epik_Tot_Q>  (98) 
0

>  <i_epik_Tot_abs_Q>  (98) 
2

>  <s_lp_Force_Field>  (98) 
OPLS3e

>  <r_lp_Energy>  (98) 
11.5182

>  <b_lp_Chiralities_Consistent>  (98) 
1

>  <s_lp_Variant>  (98) 
30:0-3

>  <s_i_glide_gridfile>  (98) 
pfpi4k_grid

>  <i_i_glide_lignum>  (98) 
6

>  <i_i_glide_rotatable_bonds>  (98) 
2

>  <r_i_docking_score>  (98) 
-3.4477

>  <r_i_glide_ligand_efficiency>  (98) 
-0.164176

>  <r_i_glide_ligand_efficiency_sa>  (98) 
-0.45295

>  <r_i_glide_ligand_efficiency_ln>  (98) 
-0.852438

>  <r_i_glide_gscore>  (98) 
-3.4477

>  <r_i_glide_lipo>  (98) 
-0.113537

>  <r_i_glide_hbond>  (98) 
-0.27461

>  <r_i_glide_metal>  (98) 
-0

>  <r_i_glide_rewards>  (98) 
-1.60578

>  <r_i_glide_evdw>  (98) 
-24.108

>  <r_i_glide_ecoul>  (98) 
-2.87664

>  <r_i_glide_erotb>  (98) 
0.224229

>  <r_i_glide_esite>  (98) 
-0.0411129

>  <r_i_glide_emodel>  (98) 
-34.0193

>  <r_i_glide_energy>  (98) 
-26.9846

>  <r_i_glide_einternal>  (98) 
0.963799

>  <r_i_glide_intrahb_reward>  (98) 
-0

>  <i_i_glide_confnum>  (98) 
3

>  <i_i_glide_posenum>  (98) 
13

>  <r_i_glide_eff_state_penalty>  (98) 
0

>  <ligand_id>  (98) 
30

>  <original_smiles>  (98) 
CC1(C)CC(=O)C2=C(C1)OC(=N)C(C#N)C2c1ccco1

>  <smiles>  (98) 
[H][N-][C+]1OC2=C(C(=O)C([H])([H])C(C([H])([H])[H])(C([H])([H])[H])C2([H])[H])C([H])(c2oc([H])c([H])c2[H])C1([H])C#N

$$$$
30:3:0
     RDKit          3D

 37 39  0  0  1  0  0  0  0  0999 V2000
    3.4111   -2.7380   -3.9393 C   0  0  0  0  0  0  0  0  0  0  0  0
    3.8615   -2.6397   -2.4777 C   0  0  0  0  0  0  0  0  0  0  0  0
    4.0938   -1.1534   -2.1239 C   0  0  0  0  0  0  0  0  0  0  0  0
    2.7644   -3.2665   -1.5850 C   0  0  0  0  0  0  0  0  0  0  0  0
    3.1954   -3.4368   -0.1225 C   0  0  0  0  0  0  0  0  0  0  0  0
    2.3385   -3.4393    0.7541 O   0  0  0  0  0  0  0  0  0  0  0  0
    4.6289   -3.6219    0.1716 C   0  0  0  0  0  0  0  0  0  0  0  0
    5.5201   -3.6464   -0.8417 C   0  0  0  0  0  0  0  0  0  0  0  0
    5.1707   -3.4338   -2.3030 C   0  0  0  0  0  0  0  0  0  0  0  0
    6.8641   -3.8134   -0.6483 O   0  0  0  0  0  0  0  0  0  0  0  0
    7.3502   -4.0551    0.6093 C   0  0  0  0  0  0  0  0  0  0  0  0
    8.6293   -4.4521    0.5704 N   0  0  0  0  0  0  0  0  0  0  0  0
    6.3794   -4.6315    1.6385 C   0  0  2  0  0  0  0  0  0  0  0  0
    6.1522   -6.0731    1.4427 C   0  0  0  0  0  0  0  0  0  0  0  0
    5.9572   -7.2033    1.2934 N   0  0  0  0  0  0  0  0  0  0  0  0
    5.0428   -3.8608    1.6168 C   0  0  1  0  0  0  0  0  0  0  0  0
    5.0780   -2.5924    2.4237 C   0  0  0  0  0  0  0  0  0  0  0  0
    5.1761   -1.2597    2.1141 C   0  0  0  0  0  0  0  0  0  0  0  0
    5.1353   -0.5512    3.3477 C   0  0  0  0  0  0  0  0  0  0  0  0
    5.0123   -1.5003    4.3212 C   0  0  0  0  0  0  0  0  0  0  0  0
    4.9939   -2.7476    3.7745 O   0  0  0  0  0  0  0  0  0  0  0  0
    2.4877   -2.1891   -4.1205 H   0  0  0  0  0  0  0  0  0  0  0  0
    3.2339   -3.7768   -4.2190 H   0  0  0  0  0  0  0  0  0  0  0  0
    4.1743   -2.3413   -4.6072 H   0  0  0  0  0  0  0  0  0  0  0  0
    4.4548   -1.0189   -1.1030 H   0  0  0  0  0  0  0  0  0  0  0  0
    3.1595   -0.6015   -2.2155 H   0  0  0  0  0  0  0  0  0  0  0  0
    4.8261   -0.6869   -2.7860 H   0  0  0  0  0  0  0  0  0  0  0  0
    1.8598   -2.6669   -1.6363 H   0  0  0  0  0  0  0  0  0  0  0  0
    2.4874   -4.2539   -1.9525 H   0  0  0  0  0  0  0  0  0  0  0  0
    5.0619   -4.4177   -2.7650 H   0  0  0  0  0  0  0  0  0  0  0  0
    6.0042   -2.9301   -2.7945 H   0  0  0  0  0  0  0  0  0  0  0  0
    8.8577   -4.8212    1.5011 H   0  0  0  0  0  0  0  0  0  0  0  0
    4.2939   -4.5049    2.0773 H   0  0  0  0  0  0  0  0  0  0  0  0
    5.2547   -0.8446    1.1214 H   0  0  0  0  0  0  0  0  0  0  0  0
    5.1841    0.5166    3.5154 H   0  0  0  0  0  0  0  0  0  0  0  0
    4.9466   -1.4578    5.4008 H   0  0  0  0  0  0  0  0  0  0  0  0
    6.8178   -4.5927    2.6295 H   0  0  0  0  0  0  0  0  0  0  0  0
  1  2  1  0
  1 22  1  0
  1 23  1  0
  1 24  1  0
  2  9  1  0
  2  3  1  0
  2  4  1  0
  3 25  1  0
  3 26  1  0
  3 27  1  0
  4  5  1  0
  4 28  1  0
  4 29  1  0
  5  6  2  0
  5  7  1  0
  7 16  1  0
  7  8  2  0
  8  9  1  0
  8 10  1  0
  9 30  1  0
  9 31  1  0
 10 11  1  0
 11 12  1  0
 11 13  1  0
 12 32  1  0
 13 14  1  0
 13 16  1  0
 13 37  1  1
 14 15  3  0
 16 17  1  0
 16 33  1  1
 17 21  1  0
 17 18  2  0
 18 19  1  0
 18 34  1  0
 19 20  2  0
 19 35  1  0
 20 21  1  0
 20 36  1  0
M  CHG  2  11   1  12  -1
M  END
>  <i_m_ct_stereo_status>  (99) 
1

>  <s_m_source_file>  (99) 
/var/tmp/pbs.5076255.sched01/tmpmmp70uc3/38qnywpnyg.sdf

>  <i_m_source_file_index>  (99) 
7

>  <i_lp_mmshare_version>  (99) 
48012

>  <i_f3d_flags>  (99) 
0

>  <s_epik_input>  (99) 
Tz1DMVtDSDJdQyhbQ0gzXSkoW0NIM10pW0NIMl1DKD1DMTIpTy9DKD1OXFtIXSlbQ0BASF0oQyNOKVtDQEhdMmMzW2NIXVtjSF1bY0hdbzM=

>  <s_epik_cmdline>  (99) 
J2VwaWtfcHl0aG9uJywgJy1waHQnLCAnMi4wJywgJy1waCcsICc3LjAnLCAnLXRuJywgJzgnLCAnLW1hJywgJzIwMCcsICctaW1hZScsICc8aW5maWxlLm1hZT4nLCAnLW9tYWUnLCAnPG91dGZpbGUubWFlPic=

>  <r_epik_Ionization_Penalty>  (99) 
3.42761e-10

>  <r_epik_Ionization_Penalty_Charging>  (99) 
0

>  <r_epik_Ionization_Penalty_Neutral>  (99) 
3.42761e-10

>  <r_epik_State_Penalty>  (99) 
0.828509

>  <r_epik_Charging_Adjusted_Penalty>  (99) 
0.828509

>  <i_epik_Tot_Q>  (99) 
0

>  <i_epik_Tot_abs_Q>  (99) 
2

>  <s_lp_Force_Field>  (99) 
OPLS3e

>  <r_lp_Energy>  (99) 
8.21725

>  <b_lp_Chiralities_Consistent>  (99) 
1

>  <s_lp_Variant>  (99) 
30:0-4

>  <s_i_glide_gridfile>  (99) 
pfpi4k_grid

>  <i_i_glide_lignum>  (99) 
7

>  <i_i_glide_rotatable_bonds>  (99) 
2

>  <r_i_docking_score>  (99) 
-4.1884

>  <r_i_glide_ligand_efficiency>  (99) 
-0.199448

>  <r_i_glide_ligand_efficiency_sa>  (99) 
-0.550261

>  <r_i_glide_ligand_efficiency_ln>  (99) 
-1.03557

>  <r_i_glide_gscore>  (99) 
-4.1884

>  <r_i_glide_lipo>  (99) 
-1.02801

>  <r_i_glide_hbond>  (99) 
0

>  <r_i_glide_metal>  (99) 
-0

>  <r_i_glide_rewards>  (99) 
-1.61389

>  <r_i_glide_evdw>  (99) 
-24.0922

>  <r_i_glide_ecoul>  (99) 
-3.77415

>  <r_i_glide_erotb>  (99) 
0.224229

>  <r_i_glide_esite>  (99) 
0

>  <r_i_glide_emodel>  (99) 
-35.4115

>  <r_i_glide_energy>  (99) 
-27.8663

>  <r_i_glide_einternal>  (99) 
0.0925823

>  <r_i_glide_intrahb_reward>  (99) 
-0

>  <i_i_glide_confnum>  (99) 
2

>  <i_i_glide_posenum>  (99) 
36

>  <r_i_glide_eff_state_penalty>  (99) 
0

>  <ligand_id>  (99) 
30

>  <original_smiles>  (99) 
CC1(C)CC(=O)C2=C(C1)OC(=N)C(C#N)C2c1ccco1

>  <smiles>  (99) 
[H][N-][C+]1OC2=C(C(=O)C([H])([H])C(C([H])([H])[H])(C([H])([H])[H])C2([H])[H])C([H])(c2oc([H])c([H])c2[H])C1([H])C#N

$$$$
30:3:1
     RDKit          3D

 37 39  0  0  1  0  0  0  0  0999 V2000
    3.7889   -2.5694   -3.8069 C   0  0  0  0  0  0  0  0  0  0  0  0
    4.1707   -2.5413   -2.3181 C   0  0  0  0  0  0  0  0  0  0  0  0
    4.3508   -1.0759   -1.8689 C   0  0  0  0  0  0  0  0  0  0  0  0
    3.0547   -3.2378   -1.5053 C   0  0  0  0  0  0  0  0  0  0  0  0
    3.4232   -3.4842   -0.0350 C   0  0  0  0  0  0  0  0  0  0  0  0
    2.5289   -3.5626    0.8004 O   0  0  0  0  0  0  0  0  0  0  0  0
    4.8450   -3.6589    0.3138 C   0  0  0  0  0  0  0  0  0  0  0  0
    5.7805   -3.6006   -0.6580 C   0  0  0  0  0  0  0  0  0  0  0  0
    5.4893   -3.3126   -2.1208 C   0  0  0  0  0  0  0  0  0  0  0  0
    7.1191   -3.7575   -0.4181 O   0  0  0  0  0  0  0  0  0  0  0  0
    7.5577   -4.0479    0.8464 C   0  0  0  0  0  0  0  0  0  0  0  0
    8.8422   -4.4259    0.8397 N   0  0  0  0  0  0  0  0  0  0  0  0
    6.5569   -4.6982    1.7999 C   0  0  2  0  0  0  0  0  0  0  0  0
    6.3799   -6.1333    1.5249 C   0  0  0  0  0  0  0  0  0  0  0  0
    6.2214   -7.2591    1.3095 N   0  0  0  0  0  0  0  0  0  0  0  0
    5.1950   -3.9739    1.7608 C   0  0  1  0  0  0  0  0  0  0  0  0
    5.1498   -2.7443    2.6224 C   0  0  0  0  0  0  0  0  0  0  0  0
    4.5746   -2.4574    3.8332 C   0  0  0  0  0  0  0  0  0  0  0  0
    4.9007   -1.1018    4.1243 C   0  0  0  0  0  0  0  0  0  0  0  0
    5.6536   -0.6630    3.0738 C   0  0  0  0  0  0  0  0  0  0  0  0
    5.8167   -1.6529    2.1520 O   0  0  0  0  0  0  0  0  0  0  0  0
    2.8604   -2.0346   -4.0014 H   0  0  0  0  0  0  0  0  0  0  0  0
    3.6522   -3.5942   -4.1529 H   0  0  0  0  0  0  0  0  0  0  0  0
    4.5720   -2.1144   -4.4105 H   0  0  0  0  0  0  0  0  0  0  0  0
    4.6668   -0.9927   -0.8262 H   0  0  0  0  0  0  0  0  0  0  0  0
    3.4067   -0.5451   -1.9690 H   0  0  0  0  0  0  0  0  0  0  0  0
    5.0952   -0.5551   -2.4737 H   0  0  0  0  0  0  0  0  0  0  0  0
    2.1377   -2.6572   -1.5598 H   0  0  0  0  0  0  0  0  0  0  0  0
    2.8229   -4.2110   -1.9343 H   0  0  0  0  0  0  0  0  0  0  0  0
    5.4214   -4.2683   -2.6445 H   0  0  0  0  0  0  0  0  0  0  0  0
    6.3319   -2.7666   -2.5494 H   0  0  0  0  0  0  0  0  0  0  0  0
    9.0413   -4.8271    1.7650 H   0  0  0  0  0  0  0  0  0  0  0  0
    4.4471   -4.6663    2.1537 H   0  0  0  0  0  0  0  0  0  0  0  0
    3.9880   -3.1380    4.4333 H   0  0  0  0  0  0  0  0  0  0  0  0
    4.6406   -0.5118    4.9943 H   0  0  0  0  0  0  0  0  0  0  0  0
    6.1569    0.2665    2.8591 H   0  0  0  0  0  0  0  0  0  0  0  0
    6.9521   -4.6769    2.8111 H   0  0  0  0  0  0  0  0  0  0  0  0
  1  2  1  0
  1 22  1  0
  1 23  1  0
  1 24  1  0
  2  9  1  0
  2  3  1  0
  2  4  1  0
  3 25  1  0
  3 26  1  0
  3 27  1  0
  4  5  1  0
  4 28  1  0
  4 29  1  0
  5  6  2  0
  5  7  1  0
  7 16  1  0
  7  8  2  0
  8  9  1  0
  8 10  1  0
  9 30  1  0
  9 31  1  0
 10 11  1  0
 11 12  1  0
 11 13  1  0
 12 32  1  0
 13 14  1  0
 13 16  1  0
 13 37  1  1
 14 15  3  0
 16 17  1  0
 16 33  1  1
 17 21  1  0
 17 18  2  0
 18 19  1  0
 18 34  1  0
 19 20  2  0
 19 35  1  0
 20 21  1  0
 20 36  1  0
M  CHG  2  11   1  12  -1
M  END
>  <i_m_ct_stereo_status>  (100) 
1

>  <s_m_source_file>  (100) 
/var/tmp/pbs.5076255.sched01/tmpmmp70uc3/38qnywpnyg.sdf

>  <i_m_source_file_index>  (100) 
7

>  <i_lp_mmshare_version>  (100) 
48012

>  <i_f3d_flags>  (100) 
0

>  <s_epik_input>  (100) 
Tz1DMVtDSDJdQyhbQ0gzXSkoW0NIM10pW0NIMl1DKD1DMTIpTy9DKD1OXFtIXSlbQ0BASF0oQyNOKVtDQEhdMmMzW2NIXVtjSF1bY0hdbzM=

>  <s_epik_cmdline>  (100) 
J2VwaWtfcHl0aG9uJywgJy1waHQnLCAnMi4wJywgJy1waCcsICc3LjAnLCAnLXRuJywgJzgnLCAnLW1hJywgJzIwMCcsICctaW1hZScsICc8aW5maWxlLm1hZT4nLCAnLW9tYWUnLCAnPG91dGZpbGUubWFlPic=

>  <r_epik_Ionization_Penalty>  (100) 
3.42761e-10

>  <r_epik_Ionization_Penalty_Charging>  (100) 
0

>  <r_epik_Ionization_Penalty_Neutral>  (100) 
3.42761e-10

>  <r_epik_State_Penalty>  (100) 
0.828509

>  <r_epik_Charging_Adjusted_Penalty>  (100) 
0.828509

>  <i_epik_Tot_Q>  (100) 
0

>  <i_epik_Tot_abs_Q>  (100) 
2

>  <s_lp_Force_Field>  (100) 
OPLS3e

>  <r_lp_Energy>  (100) 
8.21725

>  <b_lp_Chiralities_Consistent>  (100) 
1

>  <s_lp_Variant>  (100) 
30:0-4

>  <s_i_glide_gridfile>  (100) 
pfpi4k_grid

>  <i_i_glide_lignum>  (100) 
7

>  <i_i_glide_rotatable_bonds>  (100) 
2

>  <r_i_docking_score>  (100) 
-4.09653

>  <r_i_glide_ligand_efficiency>  (100) 
-0.195073

>  <r_i_glide_ligand_efficiency_sa>  (100) 
-0.538191

>  <r_i_glide_ligand_efficiency_ln>  (100) 
-1.01286

>  <r_i_glide_gscore>  (100) 
-4.09653

>  <r_i_glide_lipo>  (100) 
-1.00356

>  <r_i_glide_hbond>  (100) 
0

>  <r_i_glide_metal>  (100) 
-0

>  <r_i_glide_rewards>  (100) 
-1.59659

>  <r_i_glide_evdw>  (100) 
-23.0675

>  <r_i_glide_ecoul>  (100) 
-3.78155

>  <r_i_glide_erotb>  (100) 
0.224229

>  <r_i_glide_esite>  (100) 
0

>  <r_i_glide_emodel>  (100) 
-34.2783

>  <r_i_glide_energy>  (100) 
-26.849

>  <r_i_glide_einternal>  (100) 
0.142737

>  <r_i_glide_intrahb_reward>  (100) 
-0

>  <i_i_glide_confnum>  (100) 
2

>  <i_i_glide_posenum>  (100) 
2

>  <r_i_glide_eff_state_penalty>  (100) 
0

>  <ligand_id>  (100) 
30

>  <original_smiles>  (100) 
CC1(C)CC(=O)C2=C(C1)OC(=N)C(C#N)C2c1ccco1

>  <smiles>  (100) 
[H][N-][C+]1OC2=C(C(=O)C([H])([H])C(C([H])([H])[H])(C([H])([H])[H])C2([H])[H])C([H])(c2oc([H])c([H])c2[H])C1([H])C#N

$$$$
30:3:2
     RDKit          3D

 37 39  0  0  1  0  0  0  0  0999 V2000
    3.7503   -2.5409   -4.0348 C   0  0  0  0  0  0  0  0  0  0  0  0
    4.0665   -2.4746   -2.5402 C   0  0  0  0  0  0  0  0  0  0  0  0
    4.2323   -0.9964   -2.1320 C   0  0  0  0  0  0  0  0  0  0  0  0
    2.9068   -3.1411   -1.7714 C   0  0  0  0  0  0  0  0  0  0  0  0
    3.2049   -3.3605   -0.2815 C   0  0  0  0  0  0  0  0  0  0  0  0
    2.2699   -3.4094    0.5102 O   0  0  0  0  0  0  0  0  0  0  0  0
    4.6095   -3.5346    0.1405 C   0  0  0  0  0  0  0  0  0  0  0  0
    5.5910   -3.5082   -0.7853 C   0  0  0  0  0  0  0  0  0  0  0  0
    5.3709   -3.2542   -2.2667 C   0  0  0  0  0  0  0  0  0  0  0  0
    6.9152   -3.6545   -0.4761 O   0  0  0  0  0  0  0  0  0  0  0  0
    7.2916   -3.9119    0.8143 C   0  0  0  0  0  0  0  0  0  0  0  0
    8.5730   -4.3007    0.8750 N   0  0  0  0  0  0  0  0  0  0  0  0
    6.2464   -4.5269    1.7424 C   0  0  2  0  0  0  0  0  0  0  0  0
    6.0666   -5.9675    1.4931 C   0  0  0  0  0  0  0  0  0  0  0  0
    5.9081   -7.0970    1.2971 N   0  0  0  0  0  0  0  0  0  0  0  0
    4.8984   -3.7875    1.6154 C   0  0  1  0  0  0  0  0  0  0  0  0
    4.8325   -2.5309    2.4474 C   0  0  0  0  0  0  0  0  0  0  0  0
    5.0146   -2.2647    3.7780 C   0  0  0  0  0  0  0  0  0  0  0  0
    4.7906   -0.8696    3.9525 C   0  0  0  0  0  0  0  0  0  0  0  0
    4.4604   -0.3875    2.7174 C   0  0  0  0  0  0  0  0  0  0  0  0
    4.4974   -1.3799    1.7918 O   0  0  0  0  0  0  0  0  0  0  0  0
    2.8342   -2.0082   -4.2870 H   0  0  0  0  0  0  0  0  0  0  0  0
    3.6264   -3.5756   -4.3529 H   0  0  0  0  0  0  0  0  0  0  0  0
    4.5612   -2.1035   -4.6157 H   0  0  0  0  0  0  0  0  0  0  0  0
    4.4961   -0.8838   -1.0781 H   0  0  0  0  0  0  0  0  0  0  0  0
    3.3044   -0.4493   -2.3071 H   0  0  0  0  0  0  0  0  0  0  0  0
    5.0139   -0.5050   -2.7157 H   0  0  0  0  0  0  0  0  0  0  0  0
    1.9941   -2.5647   -1.8941 H   0  0  0  0  0  0  0  0  0  0  0  0
    2.6905   -4.1182   -2.1955 H   0  0  0  0  0  0  0  0  0  0  0  0
    5.3256   -4.2253   -2.7629 H   0  0  0  0  0  0  0  0  0  0  0  0
    6.2353   -2.7223   -2.6679 H   0  0  0  0  0  0  0  0  0  0  0  0
    8.7317   -4.6710    1.8209 H   0  0  0  0  0  0  0  0  0  0  0  0
    4.1256   -4.4549    1.9997 H   0  0  0  0  0  0  0  0  0  0  0  0
    5.2862   -2.9889    4.5339 H   0  0  0  0  0  0  0  0  0  0  0  0
    4.8469   -0.2784    4.8581 H   0  0  0  0  0  0  0  0  0  0  0  0
    4.1878    0.5882    2.3391 H   0  0  0  0  0  0  0  0  0  0  0  0
    6.6007   -4.4817    2.7691 H   0  0  0  0  0  0  0  0  0  0  0  0
  1  2  1  0
  1 22  1  0
  1 23  1  0
  1 24  1  0
  2  9  1  0
  2  3  1  0
  2  4  1  0
  3 25  1  0
  3 26  1  0
  3 27  1  0
  4  5  1  0
  4 28  1  0
  4 29  1  0
  5  6  2  0
  5  7  1  0
  7 16  1  0
  7  8  2  0
  8  9  1  0
  8 10  1  0
  9 30  1  0
  9 31  1  0
 10 11  1  0
 11 12  1  0
 11 13  1  0
 12 32  1  0
 13 14  1  0
 13 16  1  0
 13 37  1  1
 14 15  3  0
 16 17  1  0
 16 33  1  1
 17 21  1  0
 17 18  2  0
 18 19  1  0
 18 34  1  0
 19 20  2  0
 19 35  1  0
 20 21  1  0
 20 36  1  0
M  CHG  2  11   1  12  -1
M  END
>  <i_m_ct_stereo_status>  (101) 
1

>  <s_m_source_file>  (101) 
/var/tmp/pbs.5076255.sched01/tmpmmp70uc3/38qnywpnyg.sdf

>  <i_m_source_file_index>  (101) 
7

>  <i_lp_mmshare_version>  (101) 
48012

>  <i_f3d_flags>  (101) 
0

>  <s_epik_input>  (101) 
Tz1DMVtDSDJdQyhbQ0gzXSkoW0NIM10pW0NIMl1DKD1DMTIpTy9DKD1OXFtIXSlbQ0BASF0oQyNOKVtDQEhdMmMzW2NIXVtjSF1bY0hdbzM=

>  <s_epik_cmdline>  (101) 
J2VwaWtfcHl0aG9uJywgJy1waHQnLCAnMi4wJywgJy1waCcsICc3LjAnLCAnLXRuJywgJzgnLCAnLW1hJywgJzIwMCcsICctaW1hZScsICc8aW5maWxlLm1hZT4nLCAnLW9tYWUnLCAnPG91dGZpbGUubWFlPic=

>  <r_epik_Ionization_Penalty>  (101) 
3.42761e-10

>  <r_epik_Ionization_Penalty_Charging>  (101) 
0

>  <r_epik_Ionization_Penalty_Neutral>  (101) 
3.42761e-10

>  <r_epik_State_Penalty>  (101) 
0.828509

>  <r_epik_Charging_Adjusted_Penalty>  (101) 
0.828509

>  <i_epik_Tot_Q>  (101) 
0

>  <i_epik_Tot_abs_Q>  (101) 
2

>  <s_lp_Force_Field>  (101) 
OPLS3e

>  <r_lp_Energy>  (101) 
8.21725

>  <b_lp_Chiralities_Consistent>  (101) 
1

>  <s_lp_Variant>  (101) 
30:0-4

>  <s_i_glide_gridfile>  (101) 
pfpi4k_grid

>  <i_i_glide_lignum>  (101) 
7

>  <i_i_glide_rotatable_bonds>  (101) 
2

>  <r_i_docking_score>  (101) 
-3.91574

>  <r_i_glide_ligand_efficiency>  (101) 
-0.186464

>  <r_i_glide_ligand_efficiency_sa>  (101) 
-0.51444

>  <r_i_glide_ligand_efficiency_ln>  (101) 
-0.96816

>  <r_i_glide_gscore>  (101) 
-3.91574

>  <r_i_glide_lipo>  (101) 
-0.842368

>  <r_i_glide_hbond>  (101) 
0

>  <r_i_glide_metal>  (101) 
-0

>  <r_i_glide_rewards>  (101) 
-1.64119

>  <r_i_glide_evdw>  (101) 
-23.1744

>  <r_i_glide_ecoul>  (101) 
-3.31796

>  <r_i_glide_erotb>  (101) 
0.224229

>  <r_i_glide_esite>  (101) 
0

>  <r_i_glide_emodel>  (101) 
-32.7736

>  <r_i_glide_energy>  (101) 
-26.4924

>  <r_i_glide_einternal>  (101) 
1.78816

>  <r_i_glide_intrahb_reward>  (101) 
-0

>  <i_i_glide_confnum>  (101) 
2

>  <i_i_glide_posenum>  (101) 
21

>  <r_i_glide_eff_state_penalty>  (101) 
0

>  <ligand_id>  (101) 
30

>  <original_smiles>  (101) 
CC1(C)CC(=O)C2=C(C1)OC(=N)C(C#N)C2c1ccco1

>  <smiles>  (101) 
[H][N-][C+]1OC2=C(C(=O)C([H])([H])C(C([H])([H])[H])(C([H])([H])[H])C2([H])[H])C([H])(c2oc([H])c([H])c2[H])C1([H])C#N

$$$$
30:4:0
     RDKit          3D

 36 38  0  0  1  0  0  0  0  0999 V2000
   -0.5029    1.3430    2.0889 C   0  0  0  0  0  0  0  0  0  0  0  0
   -0.6945    1.9499    3.4881 C   0  0  0  0  0  0  0  0  0  0  0  0
   -1.7136    3.1134    3.4050 C   0  0  0  0  0  0  0  0  0  0  0  0
   -1.1781    0.8381    4.4447 C   0  0  0  0  0  0  0  0  0  0  0  0
   -1.1791    1.2470    5.9247 C   0  0  0  0  0  0  0  0  0  0  0  0
   -1.8771    0.5840    6.6924 O   0  0  0  0  0  0  0  0  0  0  0  0
   -0.2673    2.3373    6.3669 C   0  0  0  0  0  0  0  0  0  0  0  0
    0.6297    2.8195    5.4722 C   0  0  0  0  0  0  0  0  0  0  0  0
    0.6677    2.4554    3.9994 C   0  0  0  0  0  0  0  0  0  0  0  0
    1.6379    3.6902    5.7966 O   0  0  0  0  0  0  0  0  0  0  0  0
    1.7382    4.1627    7.0755 C   0  0  0  0  0  0  0  0  0  0  0  0
    2.9302    4.6631    7.4151 N   0  0  0  0  0  0  0  0  0  0  0  0
    0.5688    4.0797    8.0300 C   0  0  1  0  0  0  0  0  0  0  0  0
   -0.2039    5.3231    7.8708 C   0  0  0  0  0  0  0  0  0  0  0  0
   -0.8120    6.3016    7.7403 N   0  0  0  0  0  0  0  0  0  0  0  0
   -0.2915    2.8065    7.8284 C   0  0  1  0  0  0  0  0  0  0  0  0
   -1.6557    2.9683    8.4532 C   0  0  0  0  0  0  0  0  0  0  0  0
   -2.9054    3.2747    7.9807 C   0  0  0  0  0  0  0  0  0  0  0  0
   -3.7650    3.3446    9.1149 C   0  0  0  0  0  0  0  0  0  0  0  0
   -2.9793    3.0708   10.1959 C   0  0  0  0  0  0  0  0  0  0  0  0
   -1.6952    2.8450    9.8079 O   0  0  0  0  0  0  0  0  0  0  0  0
   -1.4394    0.9608    1.6844 H   0  0  0  0  0  0  0  0  0  0  0  0
    0.2058    0.5152    2.1146 H   0  0  0  0  0  0  0  0  0  0  0  0
   -0.1090    2.0768    1.3847 H   0  0  0  0  0  0  0  0  0  0  0  0
   -1.8642    3.6014    4.3684 H   0  0  0  0  0  0  0  0  0  0  0  0
   -2.6865    2.7701    3.0538 H   0  0  0  0  0  0  0  0  0  0  0  0
   -1.3691    3.8828    2.7123 H   0  0  0  0  0  0  0  0  0  0  0  0
   -2.1788    0.5229    4.1658 H   0  0  0  0  0  0  0  0  0  0  0  0
   -0.5297   -0.0339    4.3498 H   0  0  0  0  0  0  0  0  0  0  0  0
    1.4249    1.6797    3.8753 H   0  0  0  0  0  0  0  0  0  0  0  0
    0.9991    3.3218    3.4230 H   0  0  0  0  0  0  0  0  0  0  0  0
    0.9469    4.0938    9.0520 H   0  0  0  0  0  0  0  0  0  0  0  0
    0.2102    2.0035    8.3643 H   0  0  0  0  0  0  0  0  0  0  0  0
   -3.1585    3.4358    6.9435 H   0  0  0  0  0  0  0  0  0  0  0  0
   -4.8251    3.5595    9.1514 H   0  0  0  0  0  0  0  0  0  0  0  0
   -3.1628    3.0007   11.2616 H   0  0  0  0  0  0  0  0  0  0  0  0
  1  2  1  0
  1 22  1  0
  1 23  1  0
  1 24  1  0
  2  9  1  0
  2  3  1  0
  2  4  1  0
  3 25  1  0
  3 26  1  0
  3 27  1  0
  4  5  1  0
  4 28  1  0
  4 29  1  0
  5  6  2  0
  5  7  1  0
  7 16  1  0
  7  8  2  0
  8  9  1  0
  8 10  1  0
  9 30  1  0
  9 31  1  0
 10 11  1  0
 11 12  2  3
 11 13  1  0
 13 14  1  0
 13 16  1  0
 13 32  1  1
 14 15  3  0
 16 17  1  0
 16 33  1  1
 17 21  1  0
 17 18  2  0
 18 19  1  0
 18 34  1  0
 19 20  2  0
 19 35  1  0
 20 21  1  0
 20 36  1  0
M  CHG  1  12  -1
M  END
>  <i_m_ct_stereo_status>  (102) 
1

>  <s_m_source_file>  (102) 
/var/tmp/pbs.5076255.sched01/tmpmmp70uc3/38qnywpnyg.sdf

>  <i_m_source_file_index>  (102) 
8

>  <i_lp_mmshare_version>  (102) 
48012

>  <i_f3d_flags>  (102) 
0

>  <s_epik_input>  (102) 
Tz1DMVtDSDJdQyhbQ0gzXSkoW0NIM10pW0NIMl1DKD1DMTIpTy9DKD1OXFtIXSlbQ0BASF0oQyNOKVtDQEhdMmMzW2NIXVtjSF1bY0hdbzM=

>  <s_epik_cmdline>  (102) 
J2VwaWtfcHl0aG9uJywgJy1waHQnLCAnMi4wJywgJy1waCcsICc3LjAnLCAnLXRuJywgJzgnLCAnLW1hJywgJzIwMCcsICctaW1hZScsICc8aW5maWxlLm1hZT4nLCAnLW9tYWUnLCAnPG91dGZpbGUubWFlPic=

>  <r_epik_Ionization_Penalty>  (102) 
1.71341

>  <r_epik_Ionization_Penalty_Charging>  (102) 
1.71341

>  <r_epik_Ionization_Penalty_Neutral>  (102) 
1.05797e-07

>  <r_epik_State_Penalty>  (102) 
2.62077

>  <r_epik_Charging_Adjusted_Penalty>  (102) 
4.33418

>  <i_epik_Tot_Q>  (102) 
-1

>  <i_epik_Tot_abs_Q>  (102) 
1

>  <s_epik_Chemistry_Notes>  (102) 
This compound has an imine and may undergo hydrolysis.

>  <s_lp_Force_Field>  (102) 
OPLS3e

>  <r_lp_Energy>  (102) 
15.9726

>  <b_lp_Chiralities_Consistent>  (102) 
1

>  <s_lp_Variant>  (102) 
30:0-5

>  <s_i_glide_gridfile>  (102) 
pfpi4k_grid

>  <i_i_glide_lignum>  (102) 
8

>  <i_i_glide_rotatable_bonds>  (102) 
2

>  <r_i_docking_score>  (102) 
-3.51831

>  <r_i_glide_ligand_efficiency>  (102) 
-0.167538

>  <r_i_glide_ligand_efficiency_sa>  (102) 
-0.462226

>  <r_i_glide_ligand_efficiency_ln>  (102) 
-0.869894

>  <r_i_glide_gscore>  (102) 
-3.51831

>  <r_i_glide_lipo>  (102) 
-0.211969

>  <r_i_glide_hbond>  (102) 
-0.16

>  <r_i_glide_metal>  (102) 
-0

>  <r_i_glide_rewards>  (102) 
-1.47749

>  <r_i_glide_evdw>  (102) 
-20.296

>  <r_i_glide_ecoul>  (102) 
-5.6742

>  <r_i_glide_erotb>  (102) 
0.225619

>  <r_i_glide_esite>  (102) 
-0.0285388

>  <r_i_glide_emodel>  (102) 
-32.4959

>  <r_i_glide_energy>  (102) 
-25.9702

>  <r_i_glide_einternal>  (102) 
0.478997

>  <r_i_glide_intrahb_reward>  (102) 
-0

>  <i_i_glide_confnum>  (102) 
4

>  <i_i_glide_posenum>  (102) 
24

>  <r_i_glide_eff_state_penalty>  (102) 
0

>  <ligand_id>  (102) 
30

>  <original_smiles>  (102) 
CC1(C)CC(=O)C2=C(C1)OC(=N)C(C#N)C2c1ccco1

>  <smiles>  (102) 
[H]c1oc(C2([H])C3=C(OC(=[N-])C2([H])C#N)C([H])([H])C(C([H])([H])[H])(C([H])([H])[H])C([H])([H])C3=O)c([H])c1[H]

$$$$
30:4:1
     RDKit          3D

 36 38  0  0  1  0  0  0  0  0999 V2000
   -1.7120    2.9366    9.7868 C   0  0  0  0  0  0  0  0  0  0  0  0
   -1.0858    2.7307    8.3944 C   0  0  0  0  0  0  0  0  0  0  0  0
    0.3921    3.1703    8.4321 C   0  0  0  0  0  0  0  0  0  0  0  0
   -1.2113    1.2542    8.0161 C   0  0  0  0  0  0  0  0  0  0  0  0
   -0.8624    0.9241    6.5603 C   0  0  0  0  0  0  0  0  0  0  0  0
   -0.6145   -0.2556    6.3082 O   0  0  0  0  0  0  0  0  0  0  0  0
   -0.9779    1.9881    5.5338 C   0  0  0  0  0  0  0  0  0  0  0  0
   -1.5231    3.1644    5.9236 C   0  0  0  0  0  0  0  0  0  0  0  0
   -1.8793    3.5349    7.3564 C   0  0  0  0  0  0  0  0  0  0  0  0
   -1.8431    4.1657    5.0483 O   0  0  0  0  0  0  0  0  0  0  0  0
   -1.5189    4.0518    3.7304 C   0  0  0  0  0  0  0  0  0  0  0  0
   -2.1841    4.8716    2.9073 N   0  0  0  0  0  0  0  0  0  0  0  0
   -0.5010    3.0264    3.2757 C   0  0  1  0  0  0  0  0  0  0  0  0
    0.8278    3.6724    3.3057 C   0  0  0  0  0  0  0  0  0  0  0  0
    1.8678    4.1789    3.3424 N   0  0  0  0  0  0  0  0  0  0  0  0
   -0.5677    1.7133    4.0865 C   0  0  1  0  0  0  0  0  0  0  0  0
    0.6901    0.8953    3.9349 C   0  0  0  0  0  0  0  0  0  0  0  0
    1.0400   -0.1400    3.1173 C   0  0  0  0  0  0  0  0  0  0  0  0
    2.4007   -0.4556    3.4212 C   0  0  0  0  0  0  0  0  0  0  0  0
    2.7847    0.4292    4.3827 C   0  0  0  0  0  0  0  0  0  0  0  0
    1.7592    1.2631    4.7039 O   0  0  0  0  0  0  0  0  0  0  0  0
   -1.1986    2.3655   10.5624 H   0  0  0  0  0  0  0  0  0  0  0  0
   -2.7571    2.6251    9.8040 H   0  0  0  0  0  0  0  0  0  0  0  0
   -1.6894    3.9854   10.0813 H   0  0  0  0  0  0  0  0  0  0  0  0
    0.8762    3.0583    7.4608 H   0  0  0  0  0  0  0  0  0  0  0  0
    0.9684    2.5835    9.1511 H   0  0  0  0  0  0  0  0  0  0  0  0
    0.4792    4.2206    8.7123 H   0  0  0  0  0  0  0  0  0  0  0  0
   -0.5945    0.6446    8.6729 H   0  0  0  0  0  0  0  0  0  0  0  0
   -2.2454    0.9468    8.1697 H   0  0  0  0  0  0  0  0  0  0  0  0
   -2.9454    3.3522    7.4842 H   0  0  0  0  0  0  0  0  0  0  0  0
   -1.7156    4.6018    7.5041 H   0  0  0  0  0  0  0  0  0  0  0  0
   -0.7121    2.7962    2.2306 H   0  0  0  0  0  0  0  0  0  0  0  0
   -1.3945    1.1255    3.6854 H   0  0  0  0  0  0  0  0  0  0  0  0
    0.4008   -0.6028    2.3774 H   0  0  0  0  0  0  0  0  0  0  0  0
    3.0329   -1.2160    2.9808 H   0  0  0  0  0  0  0  0  0  0  0  0
    3.7075    0.5969    4.9173 H   0  0  0  0  0  0  0  0  0  0  0  0
  1  2  1  0
  1 22  1  0
  1 23  1  0
  1 24  1  0
  2  9  1  0
  2  3  1  0
  2  4  1  0
  3 25  1  0
  3 26  1  0
  3 27  1  0
  4  5  1  0
  4 28  1  0
  4 29  1  0
  5  6  2  0
  5  7  1  0
  7 16  1  0
  7  8  2  0
  8  9  1  0
  8 10  1  0
  9 30  1  0
  9 31  1  0
 10 11  1  0
 11 12  2  3
 11 13  1  0
 13 14  1  0
 13 16  1  0
 13 32  1  6
 14 15  3  0
 16 17  1  0
 16 33  1  6
 17 21  1  0
 17 18  2  0
 18 19  1  0
 18 34  1  0
 19 20  2  0
 19 35  1  0
 20 21  1  0
 20 36  1  0
M  CHG  1  12  -1
M  END
>  <i_m_ct_stereo_status>  (103) 
1

>  <s_m_source_file>  (103) 
/var/tmp/pbs.5076255.sched01/tmpmmp70uc3/38qnywpnyg.sdf

>  <i_m_source_file_index>  (103) 
8

>  <i_lp_mmshare_version>  (103) 
48012

>  <i_f3d_flags>  (103) 
0

>  <s_epik_input>  (103) 
Tz1DMVtDSDJdQyhbQ0gzXSkoW0NIM10pW0NIMl1DKD1DMTIpTy9DKD1OXFtIXSlbQ0BASF0oQyNOKVtDQEhdMmMzW2NIXVtjSF1bY0hdbzM=

>  <s_epik_cmdline>  (103) 
J2VwaWtfcHl0aG9uJywgJy1waHQnLCAnMi4wJywgJy1waCcsICc3LjAnLCAnLXRuJywgJzgnLCAnLW1hJywgJzIwMCcsICctaW1hZScsICc8aW5maWxlLm1hZT4nLCAnLW9tYWUnLCAnPG91dGZpbGUubWFlPic=

>  <r_epik_Ionization_Penalty>  (103) 
1.71341

>  <r_epik_Ionization_Penalty_Charging>  (103) 
1.71341

>  <r_epik_Ionization_Penalty_Neutral>  (103) 
1.05797e-07

>  <r_epik_State_Penalty>  (103) 
2.62077

>  <r_epik_Charging_Adjusted_Penalty>  (103) 
4.33418

>  <i_epik_Tot_Q>  (103) 
-1

>  <i_epik_Tot_abs_Q>  (103) 
1

>  <s_epik_Chemistry_Notes>  (103) 
This compound has an imine and may undergo hydrolysis.

>  <s_lp_Force_Field>  (103) 
OPLS3e

>  <r_lp_Energy>  (103) 
15.9726

>  <b_lp_Chiralities_Consistent>  (103) 
1

>  <s_lp_Variant>  (103) 
30:0-5

>  <s_i_glide_gridfile>  (103) 
pfpi4k_grid

>  <i_i_glide_lignum>  (103) 
8

>  <i_i_glide_rotatable_bonds>  (103) 
2

>  <r_i_docking_score>  (103) 
-3.22828

>  <r_i_glide_ligand_efficiency>  (103) 
-0.153728

>  <r_i_glide_ligand_efficiency_sa>  (103) 
-0.424123

>  <r_i_glide_ligand_efficiency_ln>  (103) 
-0.798187

>  <r_i_glide_gscore>  (103) 
-3.22828

>  <r_i_glide_lipo>  (103) 
-0.0714086

>  <r_i_glide_hbond>  (103) 
-0.2

>  <r_i_glide_metal>  (103) 
-0

>  <r_i_glide_rewards>  (103) 
-1.47749

>  <r_i_glide_evdw>  (103) 
-16.03

>  <r_i_glide_ecoul>  (103) 
-4.46644

>  <r_i_glide_erotb>  (103) 
0.225619

>  <r_i_glide_esite>  (103) 
-0.233543

>  <r_i_glide_emodel>  (103) 
-26.2446

>  <r_i_glide_energy>  (103) 
-20.4964

>  <r_i_glide_einternal>  (103) 
0.717367

>  <r_i_glide_intrahb_reward>  (103) 
-0

>  <i_i_glide_confnum>  (103) 
4

>  <i_i_glide_posenum>  (103) 
4

>  <r_i_glide_eff_state_penalty>  (103) 
0

>  <ligand_id>  (103) 
30

>  <original_smiles>  (103) 
CC1(C)CC(=O)C2=C(C1)OC(=N)C(C#N)C2c1ccco1

>  <smiles>  (103) 
[H]c1oc(C2([H])C3=C(OC(=[N-])C2([H])C#N)C([H])([H])C(C([H])([H])[H])(C([H])([H])[H])C([H])([H])C3=O)c([H])c1[H]

$$$$
30:4:2
     RDKit          3D

 36 38  0  0  1  0  0  0  0  0999 V2000
   -0.8306    1.3457    2.1146 C   0  0  0  0  0  0  0  0  0  0  0  0
   -0.8671    1.9621    3.5214 C   0  0  0  0  0  0  0  0  0  0  0  0
   -1.9315    3.0872    3.5624 C   0  0  0  0  0  0  0  0  0  0  0  0
   -1.1751    0.8469    4.5416 C   0  0  0  0  0  0  0  0  0  0  0  0
   -1.0061    1.2733    6.0100 C   0  0  0  0  0  0  0  0  0  0  0  0
   -1.6014    0.6114    6.8640 O   0  0  0  0  0  0  0  0  0  0  0  0
   -0.0675    2.3863    6.3235 C   0  0  0  0  0  0  0  0  0  0  0  0
    0.6763    2.8993    5.3126 C   0  0  0  0  0  0  0  0  0  0  0  0
    0.5273    2.5288    3.8457 C   0  0  0  0  0  0  0  0  0  0  0  0
    1.6764    3.8170    5.4926 O   0  0  0  0  0  0  0  0  0  0  0  0
    1.9238    4.3100    6.7433 C   0  0  0  0  0  0  0  0  0  0  0  0
    3.1355    4.8484    6.9260 N   0  0  0  0  0  0  0  0  0  0  0  0
    0.8902    4.1936    7.8404 C   0  0  1  0  0  0  0  0  0  0  0  0
    0.0519    5.4014    7.7728 C   0  0  0  0  0  0  0  0  0  0  0  0
   -0.6047    6.3546    7.7128 N   0  0  0  0  0  0  0  0  0  0  0  0
    0.0828    2.8715    7.7719 C   0  0  1  0  0  0  0  0  0  0  0  0
   -1.2105    2.9522    8.5499 C   0  0  0  0  0  0  0  0  0  0  0  0
   -1.5863    2.5264    9.7958 C   0  0  0  0  0  0  0  0  0  0  0  0
   -2.9360    2.9404    9.9815 C   0  0  0  0  0  0  0  0  0  0  0  0
   -3.2816    3.6038    8.8444 C   0  0  0  0  0  0  0  0  0  0  0  0
   -2.2477    3.6144    7.9574 O   0  0  0  0  0  0  0  0  0  0  0  0
   -1.7949    0.9344    1.8209 H   0  0  0  0  0  0  0  0  0  0  0  0
   -0.0951    0.5424    2.0453 H   0  0  0  0  0  0  0  0  0  0  0  0
   -0.5533    2.0858    1.3685 H   0  0  0  0  0  0  0  0  0  0  0  0
   -1.9744    3.5792    4.5350 H   0  0  0  0  0  0  0  0  0  0  0  0
   -2.9290    2.7044    3.3448 H   0  0  0  0  0  0  0  0  0  0  0  0
   -1.7042    3.8594    2.8254 H   0  0  0  0  0  0  0  0  0  0  0  0
   -2.1890    0.4917    4.3972 H   0  0  0  0  0  0  0  0  0  0  0  0
   -0.5132   -0.0024    4.3659 H   0  0  0  0  0  0  0  0  0  0  0  0
    1.2883    1.7807    3.6214 H   0  0  0  0  0  0  0  0  0  0  0  0
    0.7439    3.4015    3.2252 H   0  0  0  0  0  0  0  0  0  0  0  0
    1.4039    4.2413    8.8007 H   0  0  0  0  0  0  0  0  0  0  0  0
    0.6960    2.0999    8.2405 H   0  0  0  0  0  0  0  0  0  0  0  0
   -0.9656    1.9891   10.4988 H   0  0  0  0  0  0  0  0  0  0  0  0
   -3.5726    2.7926   10.8449 H   0  0  0  0  0  0  0  0  0  0  0  0
   -4.1832    4.1061    8.5272 H   0  0  0  0  0  0  0  0  0  0  0  0
  1  2  1  0
  1 22  1  0
  1 23  1  0
  1 24  1  0
  2  9  1  0
  2  3  1  0
  2  4  1  0
  3 25  1  0
  3 26  1  0
  3 27  1  0
  4  5  1  0
  4 28  1  0
  4 29  1  0
  5  6  2  0
  5  7  1  0
  7 16  1  0
  7  8  2  0
  8  9  1  0
  8 10  1  0
  9 30  1  0
  9 31  1  0
 10 11  1  0
 11 12  2  3
 11 13  1  0
 13 14  1  0
 13 16  1  0
 13 32  1  1
 14 15  3  0
 16 17  1  0
 16 33  1  1
 17 21  1  0
 17 18  2  0
 18 19  1  0
 18 34  1  0
 19 20  2  0
 19 35  1  0
 20 21  1  0
 20 36  1  0
M  CHG  1  12  -1
M  END
>  <i_m_ct_stereo_status>  (104) 
1

>  <s_m_source_file>  (104) 
/var/tmp/pbs.5076255.sched01/tmpmmp70uc3/38qnywpnyg.sdf

>  <i_m_source_file_index>  (104) 
8

>  <i_lp_mmshare_version>  (104) 
48012

>  <i_f3d_flags>  (104) 
0

>  <s_epik_input>  (104) 
Tz1DMVtDSDJdQyhbQ0gzXSkoW0NIM10pW0NIMl1DKD1DMTIpTy9DKD1OXFtIXSlbQ0BASF0oQyNOKVtDQEhdMmMzW2NIXVtjSF1bY0hdbzM=

>  <s_epik_cmdline>  (104) 
J2VwaWtfcHl0aG9uJywgJy1waHQnLCAnMi4wJywgJy1waCcsICc3LjAnLCAnLXRuJywgJzgnLCAnLW1hJywgJzIwMCcsICctaW1hZScsICc8aW5maWxlLm1hZT4nLCAnLW9tYWUnLCAnPG91dGZpbGUubWFlPic=

>  <r_epik_Ionization_Penalty>  (104) 
1.71341

>  <r_epik_Ionization_Penalty_Charging>  (104) 
1.71341

>  <r_epik_Ionization_Penalty_Neutral>  (104) 
1.05797e-07

>  <r_epik_State_Penalty>  (104) 
2.62077

>  <r_epik_Charging_Adjusted_Penalty>  (104) 
4.33418

>  <i_epik_Tot_Q>  (104) 
-1

>  <i_epik_Tot_abs_Q>  (104) 
1

>  <s_epik_Chemistry_Notes>  (104) 
This compound has an imine and may undergo hydrolysis.

>  <s_lp_Force_Field>  (104) 
OPLS3e

>  <r_lp_Energy>  (104) 
15.9726

>  <b_lp_Chiralities_Consistent>  (104) 
1

>  <s_lp_Variant>  (104) 
30:0-5

>  <s_i_glide_gridfile>  (104) 
pfpi4k_grid

>  <i_i_glide_lignum>  (104) 
8

>  <i_i_glide_rotatable_bonds>  (104) 
2

>  <r_i_docking_score>  (104) 
-3.19671

>  <r_i_glide_ligand_efficiency>  (104) 
-0.152224

>  <r_i_glide_ligand_efficiency_sa>  (104) 
-0.419975

>  <r_i_glide_ligand_efficiency_ln>  (104) 
-0.79038

>  <r_i_glide_gscore>  (104) 
-3.19671

>  <r_i_glide_lipo>  (104) 
-0.0513243

>  <r_i_glide_hbond>  (104) 
-0.16

>  <r_i_glide_metal>  (104) 
-0

>  <r_i_glide_rewards>  (104) 
-1.47749

>  <r_i_glide_evdw>  (104) 
-19.7233

>  <r_i_glide_ecoul>  (104) 
-4.82382

>  <r_i_glide_erotb>  (104) 
0.225619

>  <r_i_glide_esite>  (104) 
-0.023777

>  <r_i_glide_emodel>  (104) 
-30.3302

>  <r_i_glide_energy>  (104) 
-24.5472

>  <r_i_glide_einternal>  (104) 
0.613839

>  <r_i_glide_intrahb_reward>  (104) 
-0

>  <i_i_glide_confnum>  (104) 
4

>  <i_i_glide_posenum>  (104) 
3

>  <r_i_glide_eff_state_penalty>  (104) 
0

>  <ligand_id>  (104) 
30

>  <original_smiles>  (104) 
CC1(C)CC(=O)C2=C(C1)OC(=N)C(C#N)C2c1ccco1

>  <smiles>  (104) 
[H]c1oc(C2([H])C3=C(OC(=[N-])C2([H])C#N)C([H])([H])C(C([H])([H])[H])(C([H])([H])[H])C([H])([H])C3=O)c([H])c1[H]

$$$$
31:0:0
     RDKit          3D

 76 82  0  0  1  0  0  0  0  0999 V2000
    5.3860   -3.6004   -2.4652 C   0  0  0  0  0  0  0  0  0  0  0  0
    4.9132   -2.3845   -1.6700 C   0  0  0  0  0  0  0  0  0  0  0  0
    3.8606   -2.6988   -0.5898 C   0  0  0  0  0  0  0  0  0  0  0  0
    4.3348   -3.6338    0.5524 C   0  0  2  0  0  0  0  0  0  0  0  0
    3.8777   -4.9503    0.2455 O   0  0  0  0  0  0  0  0  0  0  0  0
    4.8505   -5.9959    0.2003 C   0  0  2  0  0  0  0  0  0  0  0  0
    4.2192   -7.2982    0.1466 O   0  0  0  0  0  0  0  0  0  0  0  0
    4.5044   -7.5089    1.5593 C   0  0  2  0  0  0  0  0  0  0  0  0
    4.9051   -8.8604    1.8648 O   0  0  0  0  0  0  0  0  0  0  0  0
    3.5635   -9.1327    2.3557 C   0  0  0  0  0  0  0  0  0  0  0  0
    3.2261   -7.6355    2.3864 C   0  0  1  0  0  0  0  0  0  0  0  0
    3.2866   -7.1129    3.7148 O   0  0  0  0  0  0  0  0  0  0  0  0
    2.0827   -6.8803    4.3948 C   0  0  2  0  0  0  0  0  0  0  0  0
    1.1767   -7.9117    4.1566 O   0  0  0  0  0  0  0  0  0  0  0  0
   -0.0566   -7.5916    3.5346 C   0  0  1  0  0  0  0  0  0  0  0  0
   -0.4996   -8.8744    2.8220 C   0  0  0  0  0  0  0  0  0  0  0  0
   -1.0914   -7.1715    4.5829 C   0  0  0  0  0  0  0  0  0  0  0  0
   -0.5170   -6.2573    5.6637 C   0  0  0  0  0  0  0  0  0  0  0  0
    0.3100   -5.0877    5.1099 C   0  0  1  0  0  0  0  0  0  0  0  0
    0.6606   -4.0767    6.2392 C   0  0  1  0  0  0  0  0  0  0  0  0
    1.5418   -4.6698    7.3612 C   0  0  0  0  0  0  0  0  0  0  0  0
    1.2304   -2.7627    5.6683 C   0  0  0  0  0  0  0  0  0  0  0  0
    1.8912   -2.9214    4.2906 C   0  0  0  0  0  0  0  0  0  0  0  0
    2.5925   -4.2954    4.1382 C   0  0  2  0  0  0  0  0  0  0  0  0
    3.6701   -4.3647    2.9863 C   0  0  2  0  0  0  0  0  0  0  0  0
    5.0351   -4.8415    3.5522 C   0  0  0  0  0  0  0  0  0  0  0  0
    6.0735   -5.4570    2.5860 C   0  0  1  0  0  0  0  0  0  0  0  0
    7.1873   -6.1349    3.4052 C   0  0  0  0  0  0  0  0  0  0  0  0
    5.5877   -6.4159    1.4846 C   0  0  2  0  0  0  0  0  0  0  0  0
    3.8050   -3.1877    1.9588 C   0  0  1  0  0  0  0  0  0  0  0  0
    4.6864   -2.0199    2.4725 C   0  0  0  0  0  0  0  0  0  0  0  0
    1.4862   -5.4445    4.1109 C   0  0  1  0  0  0  0  0  0  0  0  0
    0.9368   -5.4391    2.7936 O   0  0  0  0  0  0  0  0  0  0  0  0
    0.0275   -6.6290    2.4881 O   0  0  0  0  0  0  0  0  0  0  0  0
    6.0874   -3.3267   -3.2538 H   0  0  0  0  0  0  0  0  0  0  0  0
    4.5576   -4.1222   -2.9346 H   0  0  0  0  0  0  0  0  0  0  0  0
    5.8798   -4.2773   -1.7889 H   0  0  0  0  0  0  0  0  0  0  0  0
    5.7782   -1.9153   -1.2040 H   0  0  0  0  0  0  0  0  0  0  0  0
    4.5043   -1.6349   -2.3592 H   0  0  0  0  0  0  0  0  0  0  0  0
    3.5455   -1.7455   -0.1761 H   0  0  0  0  0  0  0  0  0  0  0  0
    2.9621   -3.1100   -1.0482 H   0  0  0  0  0  0  0  0  0  0  0  0
    5.4244   -3.6297    0.5641 H   0  0  0  0  0  0  0  0  0  0  0  0
    5.5251   -5.8700   -0.6392 H   0  0  0  0  0  0  0  0  0  0  0  0
    2.9573   -9.6850    1.6282 H   0  0  0  0  0  0  0  0  0  0  0  0
    3.5867   -9.6058    3.3400 H   0  0  0  0  0  0  0  0  0  0  0  0
    2.3386   -7.3768    1.8082 H   0  0  0  0  0  0  0  0  0  0  0  0
    2.3515   -6.9455    5.4508 H   0  0  0  0  0  0  0  0  0  0  0  0
    0.2452   -9.1655    2.0800 H   0  0  0  0  0  0  0  0  0  0  0  0
   -1.4539   -8.7364    2.3051 H   0  0  0  0  0  0  0  0  0  0  0  0
   -0.6108   -9.7113    3.5167 H   0  0  0  0  0  0  0  0  0  0  0  0
   -1.9469   -6.7026    4.0963 H   0  0  0  0  0  0  0  0  0  0  0  0
   -1.4834   -8.0667    5.0696 H   0  0  0  0  0  0  0  0  0  0  0  0
   -1.3359   -5.8604    6.2622 H   0  0  0  0  0  0  0  0  0  0  0  0
    0.0774   -6.8615    6.3501 H   0  0  0  0  0  0  0  0  0  0  0  0
   -0.3954   -4.5272    4.5011 H   0  0  0  0  0  0  0  0  0  0  0  0
   -0.2737   -3.8008    6.7344 H   0  0  0  0  0  0  0  0  0  0  0  0
    2.4737   -5.0935    6.9965 H   0  0  0  0  0  0  0  0  0  0  0  0
    1.0146   -5.4599    7.8939 H   0  0  0  0  0  0  0  0  0  0  0  0
    1.7918   -3.9159    8.1073 H   0  0  0  0  0  0  0  0  0  0  0  0
    0.4336   -2.0209    5.5839 H   0  0  0  0  0  0  0  0  0  0  0  0
    1.9468   -2.3371    6.3705 H   0  0  0  0  0  0  0  0  0  0  0  0
    1.1392   -2.8019    3.5071 H   0  0  0  0  0  0  0  0  0  0  0  0
    2.5767   -2.0885    4.1877 H   0  0  0  0  0  0  0  0  0  0  0  0
    3.1549   -4.4182    5.0644 H   0  0  0  0  0  0  0  0  0  0  0  0
    3.2610   -5.1585    2.3932 H   0  0  0  0  0  0  0  0  0  0  0  0
    5.5066   -4.0135    4.0793 H   0  0  0  0  0  0  0  0  0  0  0  0
    4.8768   -5.5743    4.3395 H   0  0  0  0  0  0  0  0  0  0  0  0
    6.5657   -4.6229    2.0835 H   0  0  0  0  0  0  0  0  0  0  0  0
    6.8192   -7.0332    3.8983 H   0  0  0  0  0  0  0  0  0  0  0  0
    7.5797   -5.4711    4.1718 H   0  0  0  0  0  0  0  0  0  0  0  0
    8.0237   -6.4267    2.7714 H   0  0  0  0  0  0  0  0  0  0  0  0
    6.4625   -6.9385    1.1045 H   0  0  0  0  0  0  0  0  0  0  0  0
    2.7954   -2.8098    1.7943 H   0  0  0  0  0  0  0  0  0  0  0  0
    5.7476   -2.2592    2.4069 H   0  0  0  0  0  0  0  0  0  0  0  0
    4.5101   -1.7577    3.5123 H   0  0  0  0  0  0  0  0  0  0  0  0
    4.5278   -1.1176    1.8820 H   0  0  0  0  0  0  0  0  0  0  0  0
  1  2  1  0
  1 35  1  0
  1 36  1  0
  1 37  1  0
  2  3  1  0
  2 38  1  0
  2 39  1  0
  3  4  1  0
  3 40  1  0
  3 41  1  0
  4 30  1  0
  4  5  1  0
  4 42  1  1
  5  6  1  0
  6 29  1  0
  6  7  1  0
  6 43  1  6
  8  7  1  6
  8 11  1  0
  8 29  1  0
  8  9  1  0
  9 10  1  0
 10 11  1  0
 10 44  1  0
 10 45  1  0
 11 12  1  0
 11 46  1  6
 12 13  1  0
 13 32  1  0
 13 14  1  0
 13 47  1  1
 14 15  1  0
 15 34  1  0
 15 16  1  6
 15 17  1  0
 16 48  1  0
 16 49  1  0
 16 50  1  0
 17 18  1  0
 17 51  1  0
 17 52  1  0
 18 19  1  0
 18 53  1  0
 18 54  1  0
 19 32  1  0
 19 20  1  0
 19 55  1  6
 20 21  1  0
 20 22  1  0
 20 56  1  1
 21 57  1  0
 21 58  1  0
 21 59  1  0
 22 23  1  0
 22 60  1  0
 22 61  1  0
 23 24  1  0
 23 62  1  0
 23 63  1  0
 24 25  1  0
 24 32  1  0
 24 64  1  1
 25 26  1  0
 25 30  1  0
 25 65  1  6
 26 27  1  0
 26 66  1  0
 26 67  1  0
 27 28  1  0
 27 29  1  0
 27 68  1  6
 28 69  1  0
 28 70  1  0
 28 71  1  0
 29 72  1  6
 30 31  1  0
 30 73  1  6
 31 74  1  0
 31 75  1  0
 31 76  1  0
 32 33  1  6
 33 34  1  0
M  END
>  <i_m_ct_stereo_status>  (105) 
1

>  <s_m_source_file>  (105) 
/var/tmp/pbs.5076255.sched01/tmpmmp70uc3/38qnywpnyg.sdf

>  <i_m_source_file_index>  (105) 
9

>  <i_lp_mmshare_version>  (105) 
48012

>  <i_f3d_flags>  (105) 
0

>  <s_epik_input>  (105) 
W0NIM11bQ0gyXVtDSDJdW0NAQEhdKFtDQEBIXTFbQ0gzXSlPW0NASF0oTzIpW0NASF0zW0NASF0oW0NIM10pW0NIMl1bQ0BIXTFbQ0BIXTRbQ0gyXVtDSDJdW0NASF0oW0NIM10pW0NASF0oW0NIMl1bQ0gyXVtDQEBdKE81KShbQ0gzXSlPTzYpW0NAXTQ2W0NAQEhdNU9bQ0BASF0oW0NAQF0yMzcpW0NIMl1PNw==

>  <s_epik_cmdline>  (105) 
J2VwaWtfcHl0aG9uJywgJy1waHQnLCAnMi4wJywgJy1waCcsICc3LjAnLCAnLXRuJywgJzgnLCAnLW1hJywgJzIwMCcsICctaW1hZScsICc8aW5maWxlLm1hZT4nLCAnLW9tYWUnLCAnPG91dGZpbGUubWFlPic=

>  <r_lp_tautomer_probability>  (105) 
1

>  <r_epik_Ionization_Penalty>  (105) 
1.30506e-13

>  <r_epik_Ionization_Penalty_Charging>  (105) 
0

>  <r_epik_Ionization_Penalty_Neutral>  (105) 
1.30506e-13

>  <r_epik_State_Penalty>  (105) 
-0

>  <r_epik_Charging_Adjusted_Penalty>  (105) 
0

>  <i_epik_Tot_Q>  (105) 
0

>  <i_epik_Tot_abs_Q>  (105) 
0

>  <s_epik_Chemistry_Notes>  (105) 
This compound contains an acetal/aminal-like group ( X-CH(R)-Y where X, Y are N, S, or O) that may be acid/base labile, releasing an aldehyde.

>  <s_lp_Force_Field>  (105) 
OPLS3e

>  <r_lp_Energy>  (105) 
82.7086

>  <b_lp_Chiralities_Consistent>  (105) 
1

>  <s_lp_Variant>  (105) 
31:0-1

>  <s_i_glide_gridfile>  (105) 
pfpi4k_grid

>  <i_i_glide_lignum>  (105) 
9

>  <i_i_glide_rotatable_bonds>  (105) 
2

>  <r_i_docking_score>  (105) 
-2.13509

>  <r_i_glide_ligand_efficiency>  (105) 
-0.0627969

>  <r_i_glide_ligand_efficiency_sa>  (105) 
-0.203438

>  <r_i_glide_ligand_efficiency_ln>  (105) 
-0.471702

>  <r_i_glide_gscore>  (105) 
-2.13509

>  <r_i_glide_lipo>  (105) 
-0.337513

>  <r_i_glide_hbond>  (105) 
-0.146697

>  <r_i_glide_metal>  (105) 
-0

>  <r_i_glide_rewards>  (105) 
-0.360212

>  <r_i_glide_evdw>  (105) 
-23.1611

>  <r_i_glide_ecoul>  (105) 
-1.19383

>  <r_i_glide_erotb>  (105) 
0.0884677

>  <r_i_glide_esite>  (105) 
-0.0420095

>  <r_i_glide_emodel>  (105) 
-25.9507

>  <r_i_glide_energy>  (105) 
-24.3549

>  <r_i_glide_einternal>  (105) 
3.25403

>  <r_i_glide_intrahb_reward>  (105) 
-0

>  <i_i_glide_confnum>  (105) 
3

>  <i_i_glide_posenum>  (105) 
20

>  <r_i_glide_eff_state_penalty>  (105) 
0

>  <ligand_id>  (105) 
31

>  <original_smiles>  (105) 
CCCC1OC2OC34OCC3OC3OC5(C)CCC6C(C)CCC(C(CC(C)C24)C1C)C36OO5

>  <smiles>  (105) 
[H]C([H])([H])C([H])([H])C([H])([H])C1([H])OC2([H])OC34OC([H])([H])C3([H])OC3([H])OC5(C([H])([H])[H])OOC36C([H])(C([H])([H])C5([H])[H])C([H])(C([H])([H])[H])C([H])([H])C([H])([H])C6([H])C([H])(C([H])([H])C([H])(C([H])([H])[H])C24[H])C1([H])C([H])([H])[H]

$$$$
31:0:1
     RDKit          3D

 76 82  0  0  1  0  0  0  0  0999 V2000
    5.9381   -1.2535   -0.4483 C   0  0  0  0  0  0  0  0  0  0  0  0
    4.4108   -1.4062   -0.5665 C   0  0  0  0  0  0  0  0  0  0  0  0
    3.9421   -2.8765   -0.6165 C   0  0  0  0  0  0  0  0  0  0  0  0
    4.4045   -3.7726    0.5611 C   0  0  2  0  0  0  0  0  0  0  0  0
    3.9830   -5.0909    0.2502 O   0  0  0  0  0  0  0  0  0  0  0  0
    5.0008   -6.0840    0.2015 C   0  0  2  0  0  0  0  0  0  0  0  0
    4.4325   -7.4146    0.1052 O   0  0  0  0  0  0  0  0  0  0  0  0
    4.7022   -7.6381    1.5131 C   0  0  2  0  0  0  0  0  0  0  0  0
    5.1646   -8.9581    1.8428 O   0  0  0  0  0  0  0  0  0  0  0  0
    3.8186   -9.2899    2.3209 C   0  0  0  0  0  0  0  0  0  0  0  0
    3.4075   -7.8267    2.3349 C   0  0  1  0  0  0  0  0  0  0  0  0
    3.4020   -7.2976    3.6635 O   0  0  0  0  0  0  0  0  0  0  0  0
    2.1706   -7.1080    4.3035 C   0  0  2  0  0  0  0  0  0  0  0  0
    1.3125   -8.1904    4.0321 O   0  0  0  0  0  0  0  0  0  0  0  0
    0.0861   -7.9168    3.3677 C   0  0  1  0  0  0  0  0  0  0  0  0
   -0.2697   -9.2245    2.6475 C   0  0  0  0  0  0  0  0  0  0  0  0
   -1.0052   -7.5452    4.3881 C   0  0  0  0  0  0  0  0  0  0  0  0
   -0.4994   -6.6108    5.4836 C   0  0  0  0  0  0  0  0  0  0  0  0
    0.2963   -5.4037    4.9591 C   0  0  1  0  0  0  0  0  0  0  0  0
    0.5524   -4.3722    6.0937 C   0  0  1  0  0  0  0  0  0  0  0  0
    1.4176   -4.9243    7.2485 C   0  0  0  0  0  0  0  0  0  0  0  0
    1.0871   -3.0373    5.5347 C   0  0  0  0  0  0  0  0  0  0  0  0
    1.8008   -3.1696    4.1842 C   0  0  0  0  0  0  0  0  0  0  0  0
    2.5716   -4.5058    4.0662 C   0  0  2  0  0  0  0  0  0  0  0  0
    3.6883   -4.5435    2.9562 C   0  0  2  0  0  0  0  0  0  0  0  0
    5.0505   -4.9666    3.5654 C   0  0  0  0  0  0  0  0  0  0  0  0
    6.1482   -5.5278    2.6320 C   0  0  1  0  0  0  0  0  0  0  0  0
    7.2619   -6.1531    3.4993 C   0  0  0  0  0  0  0  0  0  0  0  0
    5.7343   -6.4975    1.4925 C   0  0  2  0  0  0  0  0  0  0  0  0
    3.8213   -3.3515    1.9541 C   0  0  1  0  0  0  0  0  0  0  0  0
    4.6347   -2.1637    2.5525 C   0  0  0  0  0  0  0  0  0  0  0  0
    1.5227   -5.7039    3.9949 C   0  0  1  0  0  0  0  0  0  0  0  0
    0.9905   -5.7232    2.6713 O   0  0  0  0  0  0  0  0  0  0  0  0
    0.1689   -6.9332    2.3297 O   0  0  0  0  0  0  0  0  0  0  0  0
    6.2103   -0.2026   -0.3505 H   0  0  0  0  0  0  0  0  0  0  0  0
    6.4478   -1.6821   -1.3116 H   0  0  0  0  0  0  0  0  0  0  0  0
    6.3468   -1.7446    0.4321 H   0  0  0  0  0  0  0  0  0  0  0  0
    3.9229   -0.8963    0.2649 H   0  0  0  0  0  0  0  0  0  0  0  0
    4.0949   -0.9056   -1.4934 H   0  0  0  0  0  0  0  0  0  0  0  0
    2.8534   -2.8921   -0.6790 H   0  0  0  0  0  0  0  0  0  0  0  0
    4.2863   -3.3179   -1.5513 H   0  0  0  0  0  0  0  0  0  0  0  0
    5.4918   -3.7671    0.5800 H   0  0  0  0  0  0  0  0  0  0  0  0
    5.7096   -5.8876   -0.5979 H   0  0  0  0  0  0  0  0  0  0  0  0
    3.2634   -9.8813    1.5916 H   0  0  0  0  0  0  0  0  0  0  0  0
    3.8364   -9.7559    3.3025 H   0  0  0  0  0  0  0  0  0  0  0  0
    2.5293   -7.6073    1.7314 H   0  0  0  0  0  0  0  0  0  0  0  0
    2.3962   -7.1723    5.3659 H   0  0  0  0  0  0  0  0  0  0  0  0
    0.5194   -9.4808    1.9452 H   0  0  0  0  0  0  0  0  0  0  0  0
   -1.2012   -9.1315    2.0942 H   0  0  0  0  0  0  0  0  0  0  0  0
   -0.3700  -10.0616    3.3415 H   0  0  0  0  0  0  0  0  0  0  0  0
   -1.8556   -7.1112    3.8654 H   0  0  0  0  0  0  0  0  0  0  0  0
   -1.3821   -8.4494    4.8677 H   0  0  0  0  0  0  0  0  0  0  0  0
   -1.3570   -6.2459    6.0441 H   0  0  0  0  0  0  0  0  0  0  0  0
    0.0969   -7.1883    6.1905 H   0  0  0  0  0  0  0  0  0  0  0  0
   -0.4229   -4.8795    4.3330 H   0  0  0  0  0  0  0  0  0  0  0  0
   -0.4047   -4.1356    6.5503 H   0  0  0  0  0  0  0  0  0  0  0  0
    2.3774   -5.3074    6.9151 H   0  0  0  0  0  0  0  0  0  0  0  0
    0.9059   -5.7368    7.7626 H   0  0  0  0  0  0  0  0  0  0  0  0
    1.6094   -4.1584    8.0010 H   0  0  0  0  0  0  0  0  0  0  0  0
    0.2583   -2.3247    5.4173 H   0  0  0  0  0  0  0  0  0  0  0  0
    1.7573   -2.5813    6.2576 H   0  0  0  0  0  0  0  0  0  0  0  0
    1.0789   -3.0864    3.3782 H   0  0  0  0  0  0  0  0  0  0  0  0
    2.4497   -2.3055    4.1038 H   0  0  0  0  0  0  0  0  0  0  0  0
    3.1032   -4.6077    5.0081 H   0  0  0  0  0  0  0  0  0  0  0  0
    3.3309   -5.3479    2.3476 H   0  0  0  0  0  0  0  0  0  0  0  0
    5.4704   -4.1238    4.1104 H   0  0  0  0  0  0  0  0  0  0  0  0
    4.9001   -5.6994    4.3478 H   0  0  0  0  0  0  0  0  0  0  0  0
    6.6290   -4.6700    2.1604 H   0  0  0  0  0  0  0  0  0  0  0  0
    6.9185   -7.0641    3.9904 H   0  0  0  0  0  0  0  0  0  0  0  0
    7.5949   -5.4693    4.2764 H   0  0  0  0  0  0  0  0  0  0  0  0
    8.1406   -6.4117    2.9053 H   0  0  0  0  0  0  0  0  0  0  0  0
    6.6482   -6.9810    1.1504 H   0  0  0  0  0  0  0  0  0  0  0  0
    2.8127   -2.9939    1.7493 H   0  0  0  0  0  0  0  0  0  0  0  0
    5.7090   -2.3809    2.5355 H   0  0  0  0  0  0  0  0  0  0  0  0
    4.4301   -1.9909    3.6182 H   0  0  0  0  0  0  0  0  0  0  0  0
    4.4606   -1.2309    2.0027 H   0  0  0  0  0  0  0  0  0  0  0  0
  1  2  1  0
  1 35  1  0
  1 36  1  0
  1 37  1  0
  2  3  1  0
  2 38  1  0
  2 39  1  0
  3  4  1  0
  3 40  1  0
  3 41  1  0
  4 30  1  0
  4  5  1  0
  4 42  1  1
  5  6  1  0
  6 29  1  0
  6  7  1  0
  6 43  1  6
  8  7  1  6
  8 11  1  0
  8 29  1  0
  8  9  1  0
  9 10  1  0
 10 11  1  0
 10 44  1  0
 10 45  1  0
 11 12  1  0
 11 46  1  6
 12 13  1  0
 13 32  1  0
 13 14  1  0
 13 47  1  1
 14 15  1  0
 15 34  1  0
 15 16  1  6
 15 17  1  0
 16 48  1  0
 16 49  1  0
 16 50  1  0
 17 18  1  0
 17 51  1  0
 17 52  1  0
 18 19  1  0
 18 53  1  0
 18 54  1  0
 19 32  1  0
 19 20  1  0
 19 55  1  6
 20 21  1  0
 20 22  1  0
 20 56  1  1
 21 57  1  0
 21 58  1  0
 21 59  1  0
 22 23  1  0
 22 60  1  0
 22 61  1  0
 23 24  1  0
 23 62  1  0
 23 63  1  0
 24 25  1  0
 24 32  1  0
 24 64  1  1
 25 26  1  0
 25 30  1  0
 25 65  1  6
 26 27  1  0
 26 66  1  0
 26 67  1  0
 27 28  1  0
 27 29  1  0
 27 68  1  6
 28 69  1  0
 28 70  1  0
 28 71  1  0
 29 72  1  6
 30 31  1  0
 30 73  1  6
 31 74  1  0
 31 75  1  0
 31 76  1  0
 32 33  1  6
 33 34  1  0
M  END
>  <i_m_ct_stereo_status>  (106) 
1

>  <s_m_source_file>  (106) 
/var/tmp/pbs.5076255.sched01/tmpmmp70uc3/38qnywpnyg.sdf

>  <i_m_source_file_index>  (106) 
9

>  <i_lp_mmshare_version>  (106) 
48012

>  <i_f3d_flags>  (106) 
0

>  <s_epik_input>  (106) 
W0NIM11bQ0gyXVtDSDJdW0NAQEhdKFtDQEBIXTFbQ0gzXSlPW0NASF0oTzIpW0NASF0zW0NASF0oW0NIM10pW0NIMl1bQ0BIXTFbQ0BIXTRbQ0gyXVtDSDJdW0NASF0oW0NIM10pW0NASF0oW0NIMl1bQ0gyXVtDQEBdKE81KShbQ0gzXSlPTzYpW0NAXTQ2W0NAQEhdNU9bQ0BASF0oW0NAQF0yMzcpW0NIMl1PNw==

>  <s_epik_cmdline>  (106) 
J2VwaWtfcHl0aG9uJywgJy1waHQnLCAnMi4wJywgJy1waCcsICc3LjAnLCAnLXRuJywgJzgnLCAnLW1hJywgJzIwMCcsICctaW1hZScsICc8aW5maWxlLm1hZT4nLCAnLW9tYWUnLCAnPG91dGZpbGUubWFlPic=

>  <r_lp_tautomer_probability>  (106) 
1

>  <r_epik_Ionization_Penalty>  (106) 
1.30506e-13

>  <r_epik_Ionization_Penalty_Charging>  (106) 
0

>  <r_epik_Ionization_Penalty_Neutral>  (106) 
1.30506e-13

>  <r_epik_State_Penalty>  (106) 
-0

>  <r_epik_Charging_Adjusted_Penalty>  (106) 
0

>  <i_epik_Tot_Q>  (106) 
0

>  <i_epik_Tot_abs_Q>  (106) 
0

>  <s_epik_Chemistry_Notes>  (106) 
This compound contains an acetal/aminal-like group ( X-CH(R)-Y where X, Y are N, S, or O) that may be acid/base labile, releasing an aldehyde.

>  <s_lp_Force_Field>  (106) 
OPLS3e

>  <r_lp_Energy>  (106) 
82.7086

>  <b_lp_Chiralities_Consistent>  (106) 
1

>  <s_lp_Variant>  (106) 
31:0-1

>  <s_i_glide_gridfile>  (106) 
pfpi4k_grid

>  <i_i_glide_lignum>  (106) 
9

>  <i_i_glide_rotatable_bonds>  (106) 
2

>  <r_i_docking_score>  (106) 
-1.86521

>  <r_i_glide_ligand_efficiency>  (106) 
-0.0548591

>  <r_i_glide_ligand_efficiency_sa>  (106) 
-0.177722

>  <r_i_glide_ligand_efficiency_ln>  (106) 
-0.412077

>  <r_i_glide_gscore>  (106) 
-1.86521

>  <r_i_glide_lipo>  (106) 
-0.197666

>  <r_i_glide_hbond>  (106) 
-0.016057

>  <r_i_glide_metal>  (106) 
-0

>  <r_i_glide_rewards>  (106) 
-0.379862

>  <r_i_glide_evdw>  (106) 
-22.6349

>  <r_i_glide_ecoul>  (106) 
-1.27836

>  <r_i_glide_erotb>  (106) 
0.0884677

>  <r_i_glide_esite>  (106) 
-0.036595

>  <r_i_glide_emodel>  (106) 
-24.9148

>  <r_i_glide_energy>  (106) 
-23.9133

>  <r_i_glide_einternal>  (106) 
2.63349

>  <r_i_glide_intrahb_reward>  (106) 
-0

>  <i_i_glide_confnum>  (106) 
3

>  <i_i_glide_posenum>  (106) 
6

>  <r_i_glide_eff_state_penalty>  (106) 
0

>  <ligand_id>  (106) 
31

>  <original_smiles>  (106) 
CCCC1OC2OC34OCC3OC3OC5(C)CCC6C(C)CCC(C(CC(C)C24)C1C)C36OO5

>  <smiles>  (106) 
[H]C([H])([H])C([H])([H])C([H])([H])C1([H])OC2([H])OC34OC([H])([H])C3([H])OC3([H])OC5(C([H])([H])[H])OOC36C([H])(C([H])([H])C5([H])[H])C([H])(C([H])([H])[H])C([H])([H])C([H])([H])C6([H])C([H])(C([H])([H])C([H])(C([H])([H])[H])C24[H])C1([H])C([H])([H])[H]

$$$$
31:0:2
     RDKit          3D

 76 82  0  0  1  0  0  0  0  0999 V2000
   -1.7905   -9.0604    2.3999 C   0  0  0  0  0  0  0  0  0  0  0  0
   -0.7074   -8.3080    3.1785 C   0  0  0  0  0  0  0  0  0  0  0  0
    0.3879   -7.7273    2.2674 C   0  0  0  0  0  0  0  0  0  0  0  0
    1.5458   -7.0484    3.0277 C   0  0  2  0  0  0  0  0  0  0  0  0
    0.9767   -5.9565    3.7357 O   0  0  0  0  0  0  0  0  0  0  0  0
    1.2109   -5.9214    5.1450 C   0  0  2  0  0  0  0  0  0  0  0  0
    0.8159   -4.6341    5.6913 O   0  0  0  0  0  0  0  0  0  0  0  0
    2.2123   -4.2443    5.7775 C   0  0  2  0  0  0  0  0  0  0  0  0
    2.5351   -3.5165    6.9818 O   0  0  0  0  0  0  0  0  0  0  0  0
    2.5008   -2.2775    6.2222 C   0  0  0  0  0  0  0  0  0  0  0  0
    2.5098   -3.0288    4.8916 C   0  0  1  0  0  0  0  0  0  0  0  0
    3.8002   -2.9882    4.2813 O   0  0  0  0  0  0  0  0  0  0  0  0
    3.9920   -2.1136    3.1991 C   0  0  2  0  0  0  0  0  0  0  0  0
    3.3566   -0.8926    3.4351 O   0  0  0  0  0  0  0  0  0  0  0  0
    2.3357   -0.5017    2.5298 C   0  0  1  0  0  0  0  0  0  0  0  0
    1.4043    0.4181    3.3369 C   0  0  0  0  0  0  0  0  0  0  0  0
    2.9388    0.2592    1.3420 C   0  0  0  0  0  0  0  0  0  0  0  0
    4.2246   -0.3686    0.8204 C   0  0  0  0  0  0  0  0  0  0  0  0
    4.1119   -1.8832    0.5817 C   0  0  1  0  0  0  0  0  0  0  0  0
    5.3567   -2.4264   -0.1717 C   0  0  1  0  0  0  0  0  0  0  0  0
    6.6808   -2.2472    0.6041 C   0  0  0  0  0  0  0  0  0  0  0  0
    5.1439   -3.8768   -0.6570 C   0  0  0  0  0  0  0  0  0  0  0  0
    4.1167   -4.6674    0.1678 C   0  0  0  0  0  0  0  0  0  0  0  0
    4.1444   -4.2654    1.6631 C   0  0  2  0  0  0  0  0  0  0  0  0
    3.4809   -5.3151    2.6421 C   0  0  2  0  0  0  0  0  0  0  0  0
    4.4798   -5.7184    3.7598 C   0  0  0  0  0  0  0  0  0  0  0  0
    3.9327   -6.3180    5.0745 C   0  0  1  0  0  0  0  0  0  0  0  0
    5.0659   -6.3351    6.1173 C   0  0  0  0  0  0  0  0  0  0  0  0
    2.6445   -5.7141    5.6887 C   0  0  2  0  0  0  0  0  0  0  0  0
    2.6763   -6.5368    2.0715 C   0  0  1  0  0  0  0  0  0  0  0  0
    3.5705   -7.7349    1.6684 C   0  0  0  0  0  0  0  0  0  0  0  0
    3.6172   -2.7653    1.8040 C   0  0  1  0  0  0  0  0  0  0  0  0
    2.2090   -2.8369    1.6909 O   0  0  0  0  0  0  0  0  0  0  0  0
    1.4808   -1.5613    2.1048 O   0  0  0  0  0  0  0  0  0  0  0  0
   -2.5516   -9.4545    3.0704 H   0  0  0  0  0  0  0  0  0  0  0  0
   -1.3776   -9.9006    1.8421 H   0  0  0  0  0  0  0  0  0  0  0  0
   -2.2926   -8.4036    1.6927 H   0  0  0  0  0  0  0  0  0  0  0  0
   -1.1720   -7.5093    3.7569 H   0  0  0  0  0  0  0  0  0  0  0  0
   -0.2629   -8.9939    3.9004 H   0  0  0  0  0  0  0  0  0  0  0  0
    0.7910   -8.5385    1.6655 H   0  0  0  0  0  0  0  0  0  0  0  0
   -0.0570   -7.0205    1.5683 H   0  0  0  0  0  0  0  0  0  0  0  0
    1.9423   -7.7799    3.7310 H   0  0  0  0  0  0  0  0  0  0  0  0
    0.7174   -6.7492    5.6598 H   0  0  0  0  0  0  0  0  0  0  0  0
    1.5710   -1.7269    6.3841 H   0  0  0  0  0  0  0  0  0  0  0  0
    3.3876   -1.6625    6.3865 H   0  0  0  0  0  0  0  0  0  0  0  0
    1.6632   -2.7972    4.2464 H   0  0  0  0  0  0  0  0  0  0  0  0
    5.0608   -1.8979    3.2046 H   0  0  0  0  0  0  0  0  0  0  0  0
    0.9692   -0.1258    4.1773 H   0  0  0  0  0  0  0  0  0  0  0  0
    0.5838    0.7942    2.7201 H   0  0  0  0  0  0  0  0  0  0  0  0
    1.9392    1.2801    3.7429 H   0  0  0  0  0  0  0  0  0  0  0  0
    2.1949    0.3299    0.5504 H   0  0  0  0  0  0  0  0  0  0  0  0
    3.1652    1.2863    1.6339 H   0  0  0  0  0  0  0  0  0  0  0  0
    4.4931    0.1286   -0.1091 H   0  0  0  0  0  0  0  0  0  0  0  0
    5.0351   -0.1458    1.5112 H   0  0  0  0  0  0  0  0  0  0  0  0
    3.3149   -1.9718   -0.1594 H   0  0  0  0  0  0  0  0  0  0  0  0
    5.4738   -1.8284   -1.0778 H   0  0  0  0  0  0  0  0  0  0  0  0
    6.6640   -2.7072    1.5891 H   0  0  0  0  0  0  0  0  0  0  0  0
    6.9131   -1.1931    0.7463 H   0  0  0  0  0  0  0  0  0  0  0  0
    7.5201   -2.6744    0.0569 H   0  0  0  0  0  0  0  0  0  0  0  0
    4.8163   -3.8749   -1.6992 H   0  0  0  0  0  0  0  0  0  0  0  0
    6.0961   -4.4071   -0.6555 H   0  0  0  0  0  0  0  0  0  0  0  0
    3.1185   -4.5044   -0.2446 H   0  0  0  0  0  0  0  0  0  0  0  0
    4.3425   -5.7162    0.0073 H   0  0  0  0  0  0  0  0  0  0  0  0
    5.2016   -4.2570    1.9264 H   0  0  0  0  0  0  0  0  0  0  0  0
    2.7179   -4.7069    3.0871 H   0  0  0  0  0  0  0  0  0  0  0  0
    5.2095   -6.4121    3.3423 H   0  0  0  0  0  0  0  0  0  0  0  0
    5.0937   -4.8650    4.0356 H   0  0  0  0  0  0  0  0  0  0  0  0
    3.7322   -7.3690    4.8734 H   0  0  0  0  0  0  0  0  0  0  0  0
    5.3266   -5.3293    6.4424 H   0  0  0  0  0  0  0  0  0  0  0  0
    5.9676   -6.7953    5.7133 H   0  0  0  0  0  0  0  0  0  0  0  0
    4.7897   -6.9050    7.0030 H   0  0  0  0  0  0  0  0  0  0  0  0
    2.5883   -6.0783    6.7155 H   0  0  0  0  0  0  0  0  0  0  0  0
    2.1690   -6.1748    1.1773 H   0  0  0  0  0  0  0  0  0  0  0  0
    3.8961   -8.3013    2.5404 H   0  0  0  0  0  0  0  0  0  0  0  0
    4.4781   -7.4446    1.1481 H   0  0  0  0  0  0  0  0  0  0  0  0
    3.0357   -8.4285    1.0209 H   0  0  0  0  0  0  0  0  0  0  0  0
  1  2  1  0
  1 35  1  0
  1 36  1  0
  1 37  1  0
  2  3  1  0
  2 38  1  0
  2 39  1  0
  3  4  1  0
  3 40  1  0
  3 41  1  0
  4 30  1  0
  4  5  1  0
  4 42  1  1
  5  6  1  0
  6 29  1  0
  6  7  1  0
  6 43  1  1
  8  7  1  1
  8 11  1  0
  8 29  1  0
  8  9  1  0
  9 10  1  0
 10 11  1  0
 10 44  1  0
 10 45  1  0
 11 12  1  0
 11 46  1  6
 12 13  1  0
 13 32  1  0
 13 14  1  0
 13 47  1  6
 14 15  1  0
 15 34  1  0
 15 16  1  1
 15 17  1  0
 16 48  1  0
 16 49  1  0
 16 50  1  0
 17 18  1  0
 17 51  1  0
 17 52  1  0
 18 19  1  0
 18 53  1  0
 18 54  1  0
 19 32  1  0
 19 20  1  0
 19 55  1  6
 20 21  1  0
 20 22  1  0
 20 56  1  6
 21 57  1  0
 21 58  1  0
 21 59  1  0
 22 23  1  0
 22 60  1  0
 22 61  1  0
 23 24  1  0
 23 62  1  0
 23 63  1  0
 24 25  1  0
 24 32  1  0
 24 64  1  1
 25 26  1  0
 25 30  1  0
 25 65  1  1
 26 27  1  0
 26 66  1  0
 26 67  1  0
 27 28  1  0
 27 29  1  0
 27 68  1  6
 28 69  1  0
 28 70  1  0
 28 71  1  0
 29 72  1  1
 30 31  1  0
 30 73  1  6
 31 74  1  0
 31 75  1  0
 31 76  1  0
 32 33  1  1
 33 34  1  0
M  END
>  <i_m_ct_stereo_status>  (107) 
1

>  <s_m_source_file>  (107) 
/var/tmp/pbs.5076255.sched01/tmpmmp70uc3/38qnywpnyg.sdf

>  <i_m_source_file_index>  (107) 
9

>  <i_lp_mmshare_version>  (107) 
48012

>  <i_f3d_flags>  (107) 
0

>  <s_epik_input>  (107) 
W0NIM11bQ0gyXVtDSDJdW0NAQEhdKFtDQEBIXTFbQ0gzXSlPW0NASF0oTzIpW0NASF0zW0NASF0oW0NIM10pW0NIMl1bQ0BIXTFbQ0BIXTRbQ0gyXVtDSDJdW0NASF0oW0NIM10pW0NASF0oW0NIMl1bQ0gyXVtDQEBdKE81KShbQ0gzXSlPTzYpW0NAXTQ2W0NAQEhdNU9bQ0BASF0oW0NAQF0yMzcpW0NIMl1PNw==

>  <s_epik_cmdline>  (107) 
J2VwaWtfcHl0aG9uJywgJy1waHQnLCAnMi4wJywgJy1waCcsICc3LjAnLCAnLXRuJywgJzgnLCAnLW1hJywgJzIwMCcsICctaW1hZScsICc8aW5maWxlLm1hZT4nLCAnLW9tYWUnLCAnPG91dGZpbGUubWFlPic=

>  <r_lp_tautomer_probability>  (107) 
1

>  <r_epik_Ionization_Penalty>  (107) 
1.30506e-13

>  <r_epik_Ionization_Penalty_Charging>  (107) 
0

>  <r_epik_Ionization_Penalty_Neutral>  (107) 
1.30506e-13

>  <r_epik_State_Penalty>  (107) 
-0

>  <r_epik_Charging_Adjusted_Penalty>  (107) 
0

>  <i_epik_Tot_Q>  (107) 
0

>  <i_epik_Tot_abs_Q>  (107) 
0

>  <s_epik_Chemistry_Notes>  (107) 
This compound contains an acetal/aminal-like group ( X-CH(R)-Y where X, Y are N, S, or O) that may be acid/base labile, releasing an aldehyde.

>  <s_lp_Force_Field>  (107) 
OPLS3e

>  <r_lp_Energy>  (107) 
82.7086

>  <b_lp_Chiralities_Consistent>  (107) 
1

>  <s_lp_Variant>  (107) 
31:0-1

>  <s_i_glide_gridfile>  (107) 
pfpi4k_grid

>  <i_i_glide_lignum>  (107) 
9

>  <i_i_glide_rotatable_bonds>  (107) 
2

>  <r_i_docking_score>  (107) 
-1.74638

>  <r_i_glide_ligand_efficiency>  (107) 
-0.0513642

>  <r_i_glide_ligand_efficiency_sa>  (107) 
-0.1664

>  <r_i_glide_ligand_efficiency_ln>  (107) 
-0.385825

>  <r_i_glide_gscore>  (107) 
-1.74638

>  <r_i_glide_lipo>  (107) 
-0.613029

>  <r_i_glide_hbond>  (107) 
0

>  <r_i_glide_metal>  (107) 
-0

>  <r_i_glide_rewards>  (107) 
-0.14602

>  <r_i_glide_evdw>  (107) 
-22.871

>  <r_i_glide_ecoul>  (107) 
0.581984

>  <r_i_glide_erotb>  (107) 
0.0884677

>  <r_i_glide_esite>  (107) 
-0.0195502

>  <r_i_glide_emodel>  (107) 
-24.9534

>  <r_i_glide_energy>  (107) 
-22.289

>  <r_i_glide_einternal>  (107) 
0.0833583

>  <r_i_glide_intrahb_reward>  (107) 
-0

>  <i_i_glide_confnum>  (107) 
3

>  <i_i_glide_posenum>  (107) 
17

>  <r_i_glide_eff_state_penalty>  (107) 
0

>  <ligand_id>  (107) 
31

>  <original_smiles>  (107) 
CCCC1OC2OC34OCC3OC3OC5(C)CCC6C(C)CCC(C(CC(C)C24)C1C)C36OO5

>  <smiles>  (107) 
[H]C([H])([H])C([H])([H])C([H])([H])C1([H])OC2([H])OC34OC([H])([H])C3([H])OC3([H])OC5(C([H])([H])[H])OOC36C([H])(C([H])([H])C5([H])[H])C([H])(C([H])([H])[H])C([H])([H])C([H])([H])C6([H])C([H])(C([H])([H])C([H])(C([H])([H])[H])C24[H])C1([H])C([H])([H])[H]

$$$$
33:0:0
     RDKit          3D

 63 67  0  0  1  0  0  0  0  0999 V2000
    4.2883   -2.6406   -2.9600 C   0  0  0  0  0  0  0  0  0  0  0  0
    4.3724   -3.3334   -1.5938 C   0  0  2  0  0  0  0  0  0  0  0  0
    2.9865   -3.4328   -0.8737 C   0  0  0  0  0  0  0  0  0  0  0  0
    3.1834   -2.8104    0.5089 C   0  0  1  0  0  0  0  0  0  0  0  0
    2.5768   -3.4941    1.6525 N   0  0  0  0  0  0  0  0  0  0  0  0
    3.5263   -3.9044    2.3802 C   0  0  0  0  0  0  0  0  0  0  0  0
    4.8763   -3.7320    1.8090 C   0  0  0  0  0  0  0  0  0  0  0  0
    4.6396   -3.0302    0.6993 C   0  0  0  0  0  0  0  0  0  0  0  0
    5.3936   -2.7394   -0.5759 C   0  0  1  0  0  0  0  0  0  0  0  0
    6.8097   -3.3161   -0.6740 C   0  0  0  0  0  0  0  0  0  0  0  0
    5.5186   -1.3422   -0.7454 O   0  0  0  0  0  0  0  0  0  0  0  0
    6.0861   -4.2027    2.3040 O   0  0  0  0  0  0  0  0  0  0  0  0
    6.2438   -5.4889    2.9121 C   0  0  1  0  0  0  0  0  0  0  0  0
    7.2207   -6.2002    1.9708 C   0  0  0  0  0  0  0  0  0  0  0  0
    6.8139   -5.4672    4.3787 C   0  0  0  0  0  0  0  0  0  0  0  0
    6.3899   -6.6935    5.2649 C   0  0  0  0  0  0  0  0  0  0  0  0
    4.9523   -6.6610    5.7873 C   0  0  0  0  0  0  0  0  0  0  0  0
    3.9014   -6.3362    5.0147 C   0  0  0  0  0  0  0  0  0  0  0  0
    2.6165   -5.7608    5.4640 C   0  0  0  0  0  0  0  0  0  0  0  0
    1.9393   -6.0715    6.4398 O   0  0  0  0  0  0  0  0  0  0  0  0
    2.3186   -4.7877    4.5132 O   0  0  0  0  0  0  0  0  0  0  0  0
    3.5098   -4.5312    3.7462 C   0  0  2  0  0  0  0  0  0  0  0  0
    4.2217   -3.5007    4.7096 C   0  0  0  0  0  0  0  0  0  0  0  0
    3.9379   -6.0178    3.5741 C   0  0  2  0  0  0  0  0  0  0  0  0
    2.9344   -6.9004    2.7156 C   0  0  0  0  0  0  0  0  0  0  0  0
    3.0267   -8.4691    2.7146 C   0  0  0  0  0  0  0  0  0  0  0  0
    1.8211   -9.0173    1.9195 C   0  0  0  0  0  0  0  0  0  0  0  0
    2.9423   -9.0813    4.1266 C   0  0  0  0  0  0  0  0  0  0  0  0
    4.3058   -8.9851    2.0190 C   0  0  0  0  0  0  0  0  0  0  0  0
    5.1361   -6.2974    2.8735 O   0  0  0  0  0  0  0  0  0  0  0  0
    3.9085   -1.6220   -2.8796 H   0  0  0  0  0  0  0  0  0  0  0  0
    3.6099   -3.1830   -3.6174 H   0  0  0  0  0  0  0  0  0  0  0  0
    5.2593   -2.6056   -3.4543 H   0  0  0  0  0  0  0  0  0  0  0  0
    4.6781   -4.3612   -1.7900 H   0  0  0  0  0  0  0  0  0  0  0  0
    2.1936   -2.9269   -1.4229 H   0  0  0  0  0  0  0  0  0  0  0  0
    2.6959   -4.4774   -0.7780 H   0  0  0  0  0  0  0  0  0  0  0  0
    2.9629   -1.7409    0.5080 H   0  0  0  0  0  0  0  0  0  0  0  0
    6.7977   -4.3990   -0.6405 H   0  0  0  0  0  0  0  0  0  0  0  0
    7.4613   -2.9637    0.1248 H   0  0  0  0  0  0  0  0  0  0  0  0
    7.2662   -3.0225   -1.6140 H   0  0  0  0  0  0  0  0  0  0  0  0
    4.6543   -0.9650   -0.6428 H   0  0  0  0  0  0  0  0  0  0  0  0
    6.7724   -6.2429    0.9771 H   0  0  0  0  0  0  0  0  0  0  0  0
    7.4215   -7.2205    2.3022 H   0  0  0  0  0  0  0  0  0  0  0  0
    8.1534   -5.6433    1.8992 H   0  0  0  0  0  0  0  0  0  0  0  0
    7.9011   -5.4536    4.3161 H   0  0  0  0  0  0  0  0  0  0  0  0
    6.5512   -4.5554    4.8975 H   0  0  0  0  0  0  0  0  0  0  0  0
    6.5988   -7.6512    4.7870 H   0  0  0  0  0  0  0  0  0  0  0  0
    7.0109   -6.6682    6.1646 H   0  0  0  0  0  0  0  0  0  0  0  0
    4.8258   -6.7402    6.8560 H   0  0  0  0  0  0  0  0  0  0  0  0
    5.1341   -3.0582    4.3180 H   0  0  0  0  0  0  0  0  0  0  0  0
    4.4582   -3.8767    5.7028 H   0  0  0  0  0  0  0  0  0  0  0  0
    3.5453   -2.6644    4.8858 H   0  0  0  0  0  0  0  0  0  0  0  0
    1.9087   -6.6366    2.9686 H   0  0  0  0  0  0  0  0  0  0  0  0
    3.0306   -6.5852    1.6742 H   0  0  0  0  0  0  0  0  0  0  0  0
    1.8284  -10.1082    1.9033 H   0  0  0  0  0  0  0  0  0  0  0  0
    1.8300   -8.6790    0.8834 H   0  0  0  0  0  0  0  0  0  0  0  0
    0.8731   -8.7129    2.3636 H   0  0  0  0  0  0  0  0  0  0  0  0
    2.1104   -8.6575    4.6909 H   0  0  0  0  0  0  0  0  0  0  0  0
    3.8629   -8.9226    4.6840 H   0  0  0  0  0  0  0  0  0  0  0  0
    2.7996  -10.1616    4.0924 H   0  0  0  0  0  0  0  0  0  0  0  0
    4.2811  -10.0719    1.9274 H   0  0  0  0  0  0  0  0  0  0  0  0
    5.2076   -8.7381    2.5785 H   0  0  0  0  0  0  0  0  0  0  0  0
    4.4090   -8.5797    1.0116 H   0  0  0  0  0  0  0  0  0  0  0  0
  1  2  1  0
  1 31  1  0
  1 32  1  0
  1 33  1  0
  2  9  1  0
  2  3  1  0
  2 34  1  6
  3  4  1  0
  3 35  1  0
  3 36  1  0
  4  8  1  0
  4  5  1  0
  4 37  1  6
  5  6  2  0
  6 22  1  0
  6  7  1  0
  7  8  2  0
  7 12  1  0
  8  9  1  0
  9 10  1  0
  9 11  1  6
 10 38  1  0
 10 39  1  0
 10 40  1  0
 11 41  1  0
 12 13  1  0
 13 30  1  0
 13 14  1  6
 13 15  1  0
 14 42  1  0
 14 43  1  0
 14 44  1  0
 15 16  1  0
 15 45  1  0
 15 46  1  0
 16 17  1  0
 16 47  1  0
 16 48  1  0
 17 18  2  0
 17 49  1  0
 18 24  1  0
 18 19  1  0
 19 20  2  0
 19 21  1  0
 21 22  1  0
 22 23  1  1
 22 24  1  0
 23 50  1  0
 23 51  1  0
 23 52  1  0
 24 25  1  6
 24 30  1  0
 25 26  1  0
 25 53  1  0
 25 54  1  0
 26 27  1  0
 26 28  1  0
 26 29  1  0
 27 55  1  0
 27 56  1  0
 27 57  1  0
 28 58  1  0
 28 59  1  0
 28 60  1  0
 29 61  1  0
 29 62  1  0
 29 63  1  0
M  END
>  <i_m_ct_stereo_status>  (108) 
1

>  <s_m_source_file>  (108) 
/var/tmp/pbs.5076255.sched01/tmpmmp70uc3/38qnywpnyg.sdf

>  <i_m_source_file_index>  (108) 
11

>  <i_lp_mmshare_version>  (108) 
48012

>  <i_f3d_flags>  (108) 
0

>  <s_epik_input>  (108) 
W0NIM11bQ0BdMTJPQzM9QzRbQ0BASF0oW0NIMl1bQ0BASF0oW0NIM10pW0NAQF00KFtDSDNdKVtPSF0pTj1DM1tDQF01KFtDSDNdKVtDQF0oTzIpKFtDSDJdQyhbQ0gzXSkoW0NIM10pW0NIM10pQyhDKD1PKU81KT1bQ0hdW0NIMl1bQ0gyXTE=

>  <s_epik_cmdline>  (108) 
J2VwaWtfcHl0aG9uJywgJy1waHQnLCAnMi4wJywgJy1waCcsICc3LjAnLCAnLXRuJywgJzgnLCAnLW1hJywgJzIwMCcsICctaW1hZScsICc8aW5maWxlLm1hZT4nLCAnLW9tYWUnLCAnPG91dGZpbGUubWFlPic=

>  <r_lp_tautomer_probability>  (108) 
1

>  <r_epik_Ionization_Penalty>  (108) 
0.000152044

>  <r_epik_Ionization_Penalty_Charging>  (108) 
0

>  <r_epik_Ionization_Penalty_Neutral>  (108) 
0.000152044

>  <r_epik_State_Penalty>  (108) 
-0

>  <r_epik_Charging_Adjusted_Penalty>  (108) 
0

>  <i_epik_Tot_Q>  (108) 
0

>  <i_epik_Tot_abs_Q>  (108) 
0

>  <s_epik_Chemistry_Notes>  (108) 
This compound has an ester and may undergo hydrolysis at high or low pH. This compound has an imine and may undergo hydrolysis.

>  <s_lp_Force_Field>  (108) 
OPLS3e

>  <r_lp_Energy>  (108) 
69.2249

>  <b_lp_Chiralities_Consistent>  (108) 
1

>  <s_lp_Variant>  (108) 
33:0-1

>  <s_i_glide_gridfile>  (108) 
pfpi4k_grid

>  <i_i_glide_lignum>  (108) 
11

>  <i_i_glide_rotatable_bonds>  (108) 
3

>  <r_i_docking_score>  (108) 
-2.06342

>  <r_i_glide_ligand_efficiency>  (108) 
-0.0687807

>  <r_i_glide_ligand_efficiency_sa>  (108) 
-0.213718

>  <r_i_glide_ligand_efficiency_ln>  (108) 
-0.468832

>  <r_i_glide_gscore>  (108) 
-2.06342

>  <r_i_glide_lipo>  (108) 
-0.41064

>  <r_i_glide_hbond>  (108) 
0

>  <r_i_glide_metal>  (108) 
-0

>  <r_i_glide_rewards>  (108) 
-0.601173

>  <r_i_glide_evdw>  (108) 
-19.7566

>  <r_i_glide_ecoul>  (108) 
-1.18766

>  <r_i_glide_erotb>  (108) 
0.114373

>  <r_i_glide_esite>  (108) 
0

>  <r_i_glide_emodel>  (108) 
-23.5376

>  <r_i_glide_energy>  (108) 
-20.9443

>  <r_i_glide_einternal>  (108) 
0.303323

>  <r_i_glide_intrahb_reward>  (108) 
-0

>  <i_i_glide_confnum>  (108) 
1

>  <i_i_glide_posenum>  (108) 
37

>  <r_i_glide_eff_state_penalty>  (108) 
0

>  <ligand_id>  (108) 
33

>  <original_smiles>  (108) 
CC1CC2N=C3C(=C2C1(C)O)OC1(C)CCC=C2C(=O)OC3(C)C2(CC(C)(C)C)O1

>  <smiles>  (108) 
[H]OC1(C([H])([H])[H])C2=C3OC4(C([H])([H])[H])OC5(C([H])([H])C(C([H])([H])[H])(C([H])([H])[H])C([H])([H])[H])C(=C([H])C([H])([H])C4([H])[H])C(=O)OC5(C([H])([H])[H])C3=NC2([H])C([H])([H])C1([H])C([H])([H])[H]

$$$$
33:0:1
     RDKit          3D

 63 67  0  0  1  0  0  0  0  0999 V2000
    4.4070   -2.4583   -2.8478 C   0  0  0  0  0  0  0  0  0  0  0  0
    4.6062   -3.2891   -1.5764 C   0  0  2  0  0  0  0  0  0  0  0  0
    3.2662   -3.5655   -0.8120 C   0  0  0  0  0  0  0  0  0  0  0  0
    3.4875   -3.0921    0.6252 C   0  0  1  0  0  0  0  0  0  0  0  0
    2.9865   -3.9539    1.7016 N   0  0  0  0  0  0  0  0  0  0  0  0
    4.0094   -4.3841    2.3240 C   0  0  0  0  0  0  0  0  0  0  0  0
    5.3059   -4.0592    1.7059 C   0  0  0  0  0  0  0  0  0  0  0  0
    4.9623   -3.2295    0.7147 C   0  0  0  0  0  0  0  0  0  0  0  0
    5.6359   -2.7407   -0.5420 C   0  0  1  0  0  0  0  0  0  0  0  0
    7.0917   -3.1818   -0.7617 C   0  0  0  0  0  0  0  0  0  0  0  0
    5.6594   -1.3251   -0.5614 O   0  0  0  0  0  0  0  0  0  0  0  0
    6.5783   -4.4956    2.0740 O   0  0  0  0  0  0  0  0  0  0  0  0
    6.8656   -5.8163    2.5441 C   0  0  1  0  0  0  0  0  0  0  0  0
    7.8481   -6.3369    1.4917 C   0  0  0  0  0  0  0  0  0  0  0  0
    7.5141   -5.8920    3.9786 C   0  0  0  0  0  0  0  0  0  0  0  0
    7.2294   -7.2424    4.7377 C   0  0  0  0  0  0  0  0  0  0  0  0
    5.8230   -7.3854    5.3267 C   0  0  0  0  0  0  0  0  0  0  0  0
    4.7078   -7.0518    4.6533 C   0  0  0  0  0  0  0  0  0  0  0  0
    3.4181   -6.6095    5.2314 C   0  0  0  0  0  0  0  0  0  0  0  0
    2.8208   -7.0584    6.2043 O   0  0  0  0  0  0  0  0  0  0  0  0
    3.0055   -5.5666    4.4121 O   0  0  0  0  0  0  0  0  0  0  0  0
    4.1254   -5.1494    3.6113 C   0  0  2  0  0  0  0  0  0  0  0  0
    4.8173   -4.1816    4.6540 C   0  0  0  0  0  0  0  0  0  0  0  0
    4.6442   -6.5764    3.2601 C   0  0  2  0  0  0  0  0  0  0  0  0
    3.6521   -7.4174    2.3544 C   0  0  0  0  0  0  0  0  0  0  0  0
    3.5785   -8.9783    2.4743 C   0  0  0  0  0  0  0  0  0  0  0  0
    2.7513   -9.5016    1.2906 C   0  0  0  0  0  0  0  0  0  0  0  0
    2.8358   -9.4540    3.7438 C   0  0  0  0  0  0  0  0  0  0  0  0
    4.9630   -9.6521    2.4028 C   0  0  0  0  0  0  0  0  0  0  0  0
    5.8253   -6.7130    2.4835 O   0  0  0  0  0  0  0  0  0  0  0  0
    3.9605   -1.4870   -2.6332 H   0  0  0  0  0  0  0  0  0  0  0  0
    3.7337   -2.9722   -3.5319 H   0  0  0  0  0  0  0  0  0  0  0  0
    5.3458   -2.2942   -3.3787 H   0  0  0  0  0  0  0  0  0  0  0  0
    4.9730   -4.2651   -1.9015 H   0  0  0  0  0  0  0  0  0  0  0  0
    2.4100   -3.0640   -1.2641 H   0  0  0  0  0  0  0  0  0  0  0  0
    3.0619   -4.6339   -0.8138 H   0  0  0  0  0  0  0  0  0  0  0  0
    3.2025   -2.0442    0.7626 H   0  0  0  0  0  0  0  0  0  0  0  0
    7.1708   -4.2514   -0.8212 H   0  0  0  0  0  0  0  0  0  0  0  0
    7.7605   -2.8590    0.0412 H   0  0  0  0  0  0  0  0  0  0  0  0
    7.4735   -2.7642   -1.6921 H   0  0  0  0  0  0  0  0  0  0  0  0
    4.7769   -1.0349   -0.3730 H   0  0  0  0  0  0  0  0  0  0  0  0
    7.3542   -6.2926    0.5210 H   0  0  0  0  0  0  0  0  0  0  0  0
    8.1447   -7.3685    1.6928 H   0  0  0  0  0  0  0  0  0  0  0  0
    8.7280   -5.6967    1.4507 H   0  0  0  0  0  0  0  0  0  0  0  0
    8.5917   -5.7693    3.8729 H   0  0  0  0  0  0  0  0  0  0  0  0
    7.2086   -5.0710    4.6139 H   0  0  0  0  0  0  0  0  0  0  0  0
    7.4882   -8.1194    4.1433 H   0  0  0  0  0  0  0  0  0  0  0  0
    7.8934   -7.2727    5.6063 H   0  0  0  0  0  0  0  0  0  0  0  0
    5.7644   -7.5900    6.3846 H   0  0  0  0  0  0  0  0  0  0  0  0
    5.6710   -3.6292    4.2722 H   0  0  0  0  0  0  0  0  0  0  0  0
    5.1332   -4.6461    5.5858 H   0  0  0  0  0  0  0  0  0  0  0  0
    4.0914   -3.4284    4.9616 H   0  0  0  0  0  0  0  0  0  0  0  0
    2.6389   -7.0308    2.4515 H   0  0  0  0  0  0  0  0  0  0  0  0
    3.9075   -7.1846    1.3177 H   0  0  0  0  0  0  0  0  0  0  0  0
    2.6281  -10.5775    1.3820 H   0  0  0  0  0  0  0  0  0  0  0  0
    3.2545   -9.3260    0.3414 H   0  0  0  0  0  0  0  0  0  0  0  0
    1.7517   -9.0654    1.2702 H   0  0  0  0  0  0  0  0  0  0  0  0
    1.8996   -8.9076    3.8739 H   0  0  0  0  0  0  0  0  0  0  0  0
    3.4376   -9.3396    4.6426 H   0  0  0  0  0  0  0  0  0  0  0  0
    2.5927  -10.5168    3.6945 H   0  0  0  0  0  0  0  0  0  0  0  0
    4.8552  -10.7371    2.3756 H   0  0  0  0  0  0  0  0  0  0  0  0
    5.5743   -9.4136    3.2707 H   0  0  0  0  0  0  0  0  0  0  0  0
    5.5136   -9.3589    1.5083 H   0  0  0  0  0  0  0  0  0  0  0  0
  1  2  1  0
  1 31  1  0
  1 32  1  0
  1 33  1  0
  2  9  1  0
  2  3  1  0
  2 34  1  6
  3  4  1  0
  3 35  1  0
  3 36  1  0
  4  8  1  0
  4  5  1  0
  4 37  1  6
  5  6  2  0
  6 22  1  0
  6  7  1  0
  7  8  2  0
  7 12  1  0
  8  9  1  0
  9 10  1  0
  9 11  1  1
 10 38  1  0
 10 39  1  0
 10 40  1  0
 11 41  1  0
 12 13  1  0
 13 30  1  0
 13 14  1  6
 13 15  1  0
 14 42  1  0
 14 43  1  0
 14 44  1  0
 15 16  1  0
 15 45  1  0
 15 46  1  0
 16 17  1  0
 16 47  1  0
 16 48  1  0
 17 18  2  0
 17 49  1  0
 18 24  1  0
 18 19  1  0
 19 20  2  0
 19 21  1  0
 21 22  1  0
 22 23  1  1
 22 24  1  0
 23 50  1  0
 23 51  1  0
 23 52  1  0
 24 25  1  6
 24 30  1  0
 25 26  1  0
 25 53  1  0
 25 54  1  0
 26 27  1  0
 26 28  1  0
 26 29  1  0
 27 55  1  0
 27 56  1  0
 27 57  1  0
 28 58  1  0
 28 59  1  0
 28 60  1  0
 29 61  1  0
 29 62  1  0
 29 63  1  0
M  END
>  <i_m_ct_stereo_status>  (109) 
1

>  <s_m_source_file>  (109) 
/var/tmp/pbs.5076255.sched01/tmpmmp70uc3/38qnywpnyg.sdf

>  <i_m_source_file_index>  (109) 
11

>  <i_lp_mmshare_version>  (109) 
48012

>  <i_f3d_flags>  (109) 
0

>  <s_epik_input>  (109) 
W0NIM11bQ0BdMTJPQzM9QzRbQ0BASF0oW0NIMl1bQ0BASF0oW0NIM10pW0NAQF00KFtDSDNdKVtPSF0pTj1DM1tDQF01KFtDSDNdKVtDQF0oTzIpKFtDSDJdQyhbQ0gzXSkoW0NIM10pW0NIM10pQyhDKD1PKU81KT1bQ0hdW0NIMl1bQ0gyXTE=

>  <s_epik_cmdline>  (109) 
J2VwaWtfcHl0aG9uJywgJy1waHQnLCAnMi4wJywgJy1waCcsICc3LjAnLCAnLXRuJywgJzgnLCAnLW1hJywgJzIwMCcsICctaW1hZScsICc8aW5maWxlLm1hZT4nLCAnLW9tYWUnLCAnPG91dGZpbGUubWFlPic=

>  <r_lp_tautomer_probability>  (109) 
1

>  <r_epik_Ionization_Penalty>  (109) 
0.000152044

>  <r_epik_Ionization_Penalty_Charging>  (109) 
0

>  <r_epik_Ionization_Penalty_Neutral>  (109) 
0.000152044

>  <r_epik_State_Penalty>  (109) 
-0

>  <r_epik_Charging_Adjusted_Penalty>  (109) 
0

>  <i_epik_Tot_Q>  (109) 
0

>  <i_epik_Tot_abs_Q>  (109) 
0

>  <s_epik_Chemistry_Notes>  (109) 
This compound has an ester and may undergo hydrolysis at high or low pH. This compound has an imine and may undergo hydrolysis.

>  <s_lp_Force_Field>  (109) 
OPLS3e

>  <r_lp_Energy>  (109) 
69.2249

>  <b_lp_Chiralities_Consistent>  (109) 
1

>  <s_lp_Variant>  (109) 
33:0-1

>  <s_i_glide_gridfile>  (109) 
pfpi4k_grid

>  <i_i_glide_lignum>  (109) 
11

>  <i_i_glide_rotatable_bonds>  (109) 
3

>  <r_i_docking_score>  (109) 
-2.06063

>  <r_i_glide_ligand_efficiency>  (109) 
-0.0686876

>  <r_i_glide_ligand_efficiency_sa>  (109) 
-0.213428

>  <r_i_glide_ligand_efficiency_ln>  (109) 
-0.468197

>  <r_i_glide_gscore>  (109) 
-2.06063

>  <r_i_glide_lipo>  (109) 
-0.351522

>  <r_i_glide_hbond>  (109) 
0

>  <r_i_glide_metal>  (109) 
-0

>  <r_i_glide_rewards>  (109) 
-0.609091

>  <r_i_glide_evdw>  (109) 
-20.1701

>  <r_i_glide_ecoul>  (109) 
-1.37257

>  <r_i_glide_erotb>  (109) 
0.114373

>  <r_i_glide_esite>  (109) 
0

>  <r_i_glide_emodel>  (109) 
-23.1878

>  <r_i_glide_energy>  (109) 
-21.5426

>  <r_i_glide_einternal>  (109) 
1.79698

>  <r_i_glide_intrahb_reward>  (109) 
-0

>  <i_i_glide_confnum>  (109) 
1

>  <i_i_glide_posenum>  (109) 
1

>  <r_i_glide_eff_state_penalty>  (109) 
0

>  <ligand_id>  (109) 
33

>  <original_smiles>  (109) 
CC1CC2N=C3C(=C2C1(C)O)OC1(C)CCC=C2C(=O)OC3(C)C2(CC(C)(C)C)O1

>  <smiles>  (109) 
[H]OC1(C([H])([H])[H])C2=C3OC4(C([H])([H])[H])OC5(C([H])([H])C(C([H])([H])[H])(C([H])([H])[H])C([H])([H])[H])C(=C([H])C([H])([H])C4([H])[H])C(=O)OC5(C([H])([H])[H])C3=NC2([H])C([H])([H])C1([H])C([H])([H])[H]

$$$$
33:0:2
     RDKit          3D

 63 67  0  0  1  0  0  0  0  0999 V2000
   -1.6932    4.3570    3.2035 C   0  0  0  0  0  0  0  0  0  0  0  0
   -0.7107    3.2266    3.5020 C   0  0  2  0  0  0  0  0  0  0  0  0
   -1.2109    1.8429    2.9924 C   0  0  0  0  0  0  0  0  0  0  0  0
   -1.2077    0.9211    4.2257 C   0  0  1  0  0  0  0  0  0  0  0  0
   -0.7055   -0.4431    4.0619 N   0  0  0  0  0  0  0  0  0  0  0  0
    0.3742   -0.5125    4.7108 C   0  0  0  0  0  0  0  0  0  0  0  0
    0.8460    0.7447    5.3162 C   0  0  0  0  0  0  0  0  0  0  0  0
   -0.1475    1.5796    5.0388 C   0  0  0  0  0  0  0  0  0  0  0  0
   -0.2938    3.0728    4.9848 C   0  0  1  0  0  0  0  0  0  0  0  0
    0.9473    3.9008    5.3920 C   0  0  0  0  0  0  0  0  0  0  0  0
   -1.3428    3.4628    5.8209 O   0  0  0  0  0  0  0  0  0  0  0  0
    2.0422    1.0140    5.9748 O   0  0  0  0  0  0  0  0  0  0  0  0
    3.3145    0.4682    5.5943 C   0  0  1  0  0  0  0  0  0  0  0  0
    4.1636    1.6945    5.2245 C   0  0  0  0  0  0  0  0  0  0  0  0
    4.0653   -0.3691    6.7009 C   0  0  0  0  0  0  0  0  0  0  0  0
    5.0214   -1.4722    6.1045 C   0  0  0  0  0  0  0  0  0  0  0  0
    4.3249   -2.7288    5.5763 C   0  0  0  0  0  0  0  0  0  0  0  0
    3.2575   -2.6782    4.7598 C   0  0  0  0  0  0  0  0  0  0  0  0
    2.2246   -3.7311    4.5814 C   0  0  0  0  0  0  0  0  0  0  0  0
    2.3610   -4.9350    4.4182 O   0  0  0  0  0  0  0  0  0  0  0  0
    1.0052   -3.0315    4.5656 O   0  0  0  0  0  0  0  0  0  0  0  0
    1.2663   -1.6874    5.0025 C   0  0  2  0  0  0  0  0  0  0  0  0
    1.1711   -1.9226    6.5624 C   0  0  0  0  0  0  0  0  0  0  0  0
    2.6117   -1.4803    4.2331 C   0  0  2  0  0  0  0  0  0  0  0  0
    2.5234   -1.4852    2.6499 C   0  0  0  0  0  0  0  0  0  0  0  0
    3.8269   -1.6138    1.7643 C   0  0  0  0  0  0  0  0  0  0  0  0
    4.6099   -2.9395    1.9410 C   0  0  0  0  0  0  0  0  0  0  0  0
    4.8100   -0.4267    1.9257 C   0  0  0  0  0  0  0  0  0  0  0  0
    3.4055   -1.6001    0.2789 C   0  0  0  0  0  0  0  0  0  0  0  0
    3.2928   -0.2438    4.4187 O   0  0  0  0  0  0  0  0  0  0  0  0
   -2.6760    4.1953    3.6560 H   0  0  0  0  0  0  0  0  0  0  0  0
   -1.8481    4.4345    2.1284 H   0  0  0  0  0  0  0  0  0  0  0  0
   -1.2923    5.3198    3.5247 H   0  0  0  0  0  0  0  0  0  0  0  0
    0.1830    3.4456    2.9355 H   0  0  0  0  0  0  0  0  0  0  0  0
   -2.1996    1.8823    2.5283 H   0  0  0  0  0  0  0  0  0  0  0  0
   -0.5307    1.4715    2.2245 H   0  0  0  0  0  0  0  0  0  0  0  0
   -2.1693    0.9488    4.7561 H   0  0  0  0  0  0  0  0  0  0  0  0
    1.8065    3.7797    4.7224 H   0  0  0  0  0  0  0  0  0  0  0  0
    1.2824    3.6944    6.4141 H   0  0  0  0  0  0  0  0  0  0  0  0
    0.6828    4.9524    5.3656 H   0  0  0  0  0  0  0  0  0  0  0  0
   -2.0923    2.9192    5.5592 H   0  0  0  0  0  0  0  0  0  0  0  0
    3.6658    2.2194    4.4115 H   0  0  0  0  0  0  0  0  0  0  0  0
    5.1562    1.3947    4.8768 H   0  0  0  0  0  0  0  0  0  0  0  0
    4.2566    2.3740    6.0681 H   0  0  0  0  0  0  0  0  0  0  0  0
    4.6479    0.3131    7.3241 H   0  0  0  0  0  0  0  0  0  0  0  0
    3.3794   -0.8484    7.3855 H   0  0  0  0  0  0  0  0  0  0  0  0
    5.7213   -1.0861    5.3556 H   0  0  0  0  0  0  0  0  0  0  0  0
    5.6608   -1.8246    6.9242 H   0  0  0  0  0  0  0  0  0  0  0  0
    4.6467   -3.6439    6.0305 H   0  0  0  0  0  0  0  0  0  0  0  0
    1.2434   -1.0154    7.1570 H   0  0  0  0  0  0  0  0  0  0  0  0
    1.8951   -2.6219    6.9733 H   0  0  0  0  0  0  0  0  0  0  0  0
    0.2027   -2.3723    6.7770 H   0  0  0  0  0  0  0  0  0  0  0  0
    1.8131   -2.2458    2.3293 H   0  0  0  0  0  0  0  0  0  0  0  0
    2.0264   -0.5591    2.3443 H   0  0  0  0  0  0  0  0  0  0  0  0
    5.3766   -3.0540    1.1653 H   0  0  0  0  0  0  0  0  0  0  0  0
    3.9164   -3.7811    1.8442 H   0  0  0  0  0  0  0  0  0  0  0  0
    5.1518   -3.0024    2.8887 H   0  0  0  0  0  0  0  0  0  0  0  0
    5.1910   -0.2813    2.9364 H   0  0  0  0  0  0  0  0  0  0  0  0
    4.3303    0.4976    1.5919 H   0  0  0  0  0  0  0  0  0  0  0  0
    5.6980   -0.5864    1.3108 H   0  0  0  0  0  0  0  0  0  0  0  0
    4.2752   -1.7871   -0.3542 H   0  0  0  0  0  0  0  0  0  0  0  0
    2.9917   -0.6423   -0.0316 H   0  0  0  0  0  0  0  0  0  0  0  0
    2.6704   -2.3697    0.0404 H   0  0  0  0  0  0  0  0  0  0  0  0
  1  2  1  0
  1 31  1  0
  1 32  1  0
  1 33  1  0
  2  9  1  0
  2  3  1  0
  2 34  1  6
  3  4  1  0
  3 35  1  0
  3 36  1  0
  4  8  1  0
  4  5  1  0
  4 37  1  1
  5  6  2  0
  6 22  1  0
  6  7  1  0
  7  8  2  0
  7 12  1  0
  8  9  1  0
  9 10  1  0
  9 11  1  1
 10 38  1  0
 10 39  1  0
 10 40  1  0
 11 41  1  0
 12 13  1  0
 13 30  1  0
 13 14  1  6
 13 15  1  0
 14 42  1  0
 14 43  1  0
 14 44  1  0
 15 16  1  0
 15 45  1  0
 15 46  1  0
 16 17  1  0
 16 47  1  0
 16 48  1  0
 17 18  2  0
 17 49  1  0
 18 24  1  0
 18 19  1  0
 19 20  2  0
 19 21  1  0
 21 22  1  0
 22 23  1  1
 22 24  1  0
 23 50  1  0
 23 51  1  0
 23 52  1  0
 24 25  1  6
 24 30  1  0
 25 26  1  0
 25 53  1  0
 25 54  1  0
 26 27  1  0
 26 28  1  0
 26 29  1  0
 27 55  1  0
 27 56  1  0
 27 57  1  0
 28 58  1  0
 28 59  1  0
 28 60  1  0
 29 61  1  0
 29 62  1  0
 29 63  1  0
M  END
>  <i_m_ct_stereo_status>  (110) 
1

>  <s_m_source_file>  (110) 
/var/tmp/pbs.5076255.sched01/tmpmmp70uc3/38qnywpnyg.sdf

>  <i_m_source_file_index>  (110) 
11

>  <i_lp_mmshare_version>  (110) 
48012

>  <i_f3d_flags>  (110) 
0

>  <s_epik_input>  (110) 
W0NIM11bQ0BdMTJPQzM9QzRbQ0BASF0oW0NIMl1bQ0BASF0oW0NIM10pW0NAQF00KFtDSDNdKVtPSF0pTj1DM1tDQF01KFtDSDNdKVtDQF0oTzIpKFtDSDJdQyhbQ0gzXSkoW0NIM10pW0NIM10pQyhDKD1PKU81KT1bQ0hdW0NIMl1bQ0gyXTE=

>  <s_epik_cmdline>  (110) 
J2VwaWtfcHl0aG9uJywgJy1waHQnLCAnMi4wJywgJy1waCcsICc3LjAnLCAnLXRuJywgJzgnLCAnLW1hJywgJzIwMCcsICctaW1hZScsICc8aW5maWxlLm1hZT4nLCAnLW9tYWUnLCAnPG91dGZpbGUubWFlPic=

>  <r_lp_tautomer_probability>  (110) 
1

>  <r_epik_Ionization_Penalty>  (110) 
0.000152044

>  <r_epik_Ionization_Penalty_Charging>  (110) 
0

>  <r_epik_Ionization_Penalty_Neutral>  (110) 
0.000152044

>  <r_epik_State_Penalty>  (110) 
-0

>  <r_epik_Charging_Adjusted_Penalty>  (110) 
0

>  <i_epik_Tot_Q>  (110) 
0

>  <i_epik_Tot_abs_Q>  (110) 
0

>  <s_epik_Chemistry_Notes>  (110) 
This compound has an ester and may undergo hydrolysis at high or low pH. This compound has an imine and may undergo hydrolysis.

>  <s_lp_Force_Field>  (110) 
OPLS3e

>  <r_lp_Energy>  (110) 
69.2249

>  <b_lp_Chiralities_Consistent>  (110) 
1

>  <s_lp_Variant>  (110) 
33:0-1

>  <s_i_glide_gridfile>  (110) 
pfpi4k_grid

>  <i_i_glide_lignum>  (110) 
11

>  <i_i_glide_rotatable_bonds>  (110) 
3

>  <r_i_docking_score>  (110) 
-1.5397

>  <r_i_glide_ligand_efficiency>  (110) 
-0.0513234

>  <r_i_glide_ligand_efficiency_sa>  (110) 
-0.159474

>  <r_i_glide_ligand_efficiency_ln>  (110) 
-0.349837

>  <r_i_glide_gscore>  (110) 
-1.5397

>  <r_i_glide_lipo>  (110) 
-0.171603

>  <r_i_glide_hbond>  (110) 
0

>  <r_i_glide_metal>  (110) 
-0

>  <r_i_glide_rewards>  (110) 
-0.575983

>  <r_i_glide_evdw>  (110) 
-19.6143

>  <r_i_glide_ecoul>  (110) 
0.5528

>  <r_i_glide_erotb>  (110) 
0.114373

>  <r_i_glide_esite>  (110) 
-0.00869433

>  <r_i_glide_emodel>  (110) 
-20.5439

>  <r_i_glide_energy>  (110) 
-19.0615

>  <r_i_glide_einternal>  (110) 
0.141004

>  <r_i_glide_intrahb_reward>  (110) 
-0

>  <i_i_glide_confnum>  (110) 
1

>  <i_i_glide_posenum>  (110) 
18

>  <r_i_glide_eff_state_penalty>  (110) 
0

>  <ligand_id>  (110) 
33

>  <original_smiles>  (110) 
CC1CC2N=C3C(=C2C1(C)O)OC1(C)CCC=C2C(=O)OC3(C)C2(CC(C)(C)C)O1

>  <smiles>  (110) 
[H]OC1(C([H])([H])[H])C2=C3OC4(C([H])([H])[H])OC5(C([H])([H])C(C([H])([H])[H])(C([H])([H])[H])C([H])([H])[H])C(=C([H])C([H])([H])C4([H])[H])C(=O)OC5(C([H])([H])[H])C3=NC2([H])C([H])([H])C1([H])C([H])([H])[H]

$$$$
34:0:0
     RDKit          3D

 54 60  0  0  1  0  0  0  0  0999 V2000
    7.7137   -3.3204   -1.4330 C   0  0  0  0  0  0  0  0  0  0  0  0
    6.8329   -2.6696   -0.6506 C   0  0  0  0  0  0  0  0  0  0  0  0
    7.1831   -2.3898    0.7774 C   0  0  0  0  0  0  0  0  0  0  0  0
    6.0367   -2.6064    1.7541 C   0  0  1  0  0  0  0  0  0  0  0  0
    5.2454   -1.3515    2.1820 C   0  0  2  0  0  0  0  0  0  0  0  0
    6.0825   -0.4072    2.8126 O   0  0  0  0  0  0  0  0  0  0  0  0
    4.1675   -1.8654    3.3080 C   0  0  0  0  0  0  0  0  0  0  0  0
    3.0779   -2.9063    2.6643 C   0  0  1  0  0  0  0  0  0  0  0  0
    1.5735   -2.6601    2.9449 C   0  0  0  0  0  0  0  0  0  0  0  0
    3.6239   -3.0153    1.1913 C   0  0  2  0  0  0  0  0  0  0  0  0
    3.3023   -1.4581    0.9941 C   0  0  0  0  0  0  0  0  0  0  0  0
    4.5429   -0.6954    0.9043 C   0  0  2  0  0  0  0  0  0  0  0  0
    4.9768   -0.8203   -0.6101 C   0  0  1  0  0  0  0  0  0  0  0  0
    5.5651   -2.0700   -1.2297 C   0  0  2  0  0  0  0  0  0  0  0  0
    4.0874   -2.6644   -1.4302 C   0  0  2  0  0  0  0  0  0  0  0  0
    3.1866   -3.3609   -0.2642 C   0  0  0  0  0  0  0  0  0  0  0  0
    2.2210   -4.1067   -0.4122 O   0  0  0  0  0  0  0  0  0  0  0  0
    3.8238   -3.3132   -2.7789 C   0  0  2  0  0  0  0  0  0  0  0  0
    4.8137   -3.1716   -3.8050 O   0  0  0  0  0  0  0  0  0  0  0  0
    3.7224   -2.2431   -3.8367 C   0  0  2  0  0  0  0  0  0  0  0  0
    3.9582   -0.8728   -3.2262 C   0  0  1  0  0  0  0  0  0  0  0  0
    3.0222    0.0467   -3.7582 O   0  0  0  0  0  0  0  0  0  0  0  0
    3.8499   -1.1309   -1.6990 C   0  0  2  0  0  0  0  0  0  0  0  0
    5.0548   -3.7711    1.4493 C   0  0  0  0  0  0  0  0  0  0  0  0
    5.4636   -4.9013    0.4096 C   0  0  0  0  0  0  0  0  0  0  0  0
    5.1749   -4.7619    2.6824 C   0  0  0  0  0  0  0  0  0  0  0  0
    7.4918   -3.4933   -2.4714 H   0  0  0  0  0  0  0  0  0  0  0  0
    8.6391   -3.7149   -1.0385 H   0  0  0  0  0  0  0  0  0  0  0  0
    7.9754   -3.0837    1.0576 H   0  0  0  0  0  0  0  0  0  0  0  0
    7.6150   -1.3934    0.8734 H   0  0  0  0  0  0  0  0  0  0  0  0
    6.5563   -2.8674    2.6559 H   0  0  0  0  0  0  0  0  0  0  0  0
    6.7634   -0.1479    2.2069 H   0  0  0  0  0  0  0  0  0  0  0  0
    4.6714   -2.2946    4.1719 H   0  0  0  0  0  0  0  0  0  0  0  0
    3.6405   -1.0017    3.7138 H   0  0  0  0  0  0  0  0  0  0  0  0
    3.1183   -3.8508    3.1883 H   0  0  0  0  0  0  0  0  0  0  0  0
    1.1323   -1.7299    2.5854 H   0  0  0  0  0  0  0  0  0  0  0  0
    1.3725   -2.7047    4.0166 H   0  0  0  0  0  0  0  0  0  0  0  0
    1.0174   -3.4771    2.4895 H   0  0  0  0  0  0  0  0  0  0  0  0
    2.4809   -1.2279    0.3562 H   0  0  0  0  0  0  0  0  0  0  0  0
    2.7698   -0.8761    1.7431 H   0  0  0  0  0  0  0  0  0  0  0  0
    4.3205    0.3527    1.1153 H   0  0  0  0  0  0  0  0  0  0  0  0
    5.6104    0.0038   -0.8989 H   0  0  0  0  0  0  0  0  0  0  0  0
    5.9940   -1.7939   -2.1946 H   0  0  0  0  0  0  0  0  0  0  0  0
    3.1911   -4.1835   -2.8571 H   0  0  0  0  0  0  0  0  0  0  0  0
    3.0307   -2.3511   -4.6712 H   0  0  0  0  0  0  0  0  0  0  0  0
    4.9431   -0.5250   -3.5228 H   0  0  0  0  0  0  0  0  0  0  0  0
    2.9085    0.7939   -3.1752 H   0  0  0  0  0  0  0  0  0  0  0  0
    2.8660   -0.7688   -1.4470 H   0  0  0  0  0  0  0  0  0  0  0  0
    4.8348   -5.7896    0.5044 H   0  0  0  0  0  0  0  0  0  0  0  0
    6.4966   -5.2223    0.5609 H   0  0  0  0  0  0  0  0  0  0  0  0
    5.3957   -4.6700   -0.6470 H   0  0  0  0  0  0  0  0  0  0  0  0
    4.4117   -5.5430    2.6642 H   0  0  0  0  0  0  0  0  0  0  0  0
    5.1294   -4.2982    3.6656 H   0  0  0  0  0  0  0  0  0  0  0  0
    6.1400   -5.2746    2.7065 H   0  0  0  0  0  0  0  0  0  0  0  0
  1  2  2  0
  1 27  1  0
  1 28  1  0
  2 14  1  0
  2  3  1  0
  3  4  1  0
  3 29  1  0
  3 30  1  0
  4 24  1  0
  4  5  1  0
  4 31  1  1
  5 12  1  0
  5  6  1  1
  5  7  1  0
  6 32  1  0
  7  8  1  0
  7 33  1  0
  7 34  1  0
  8  9  1  0
  8 10  1  0
  8 35  1  1
  9 36  1  0
  9 37  1  0
  9 38  1  0
 10 16  1  0
 10 11  1  0
 10 24  1  1
 11 12  1  0
 11 39  1  0
 11 40  1  0
 12 13  1  0
 12 41  1  1
 13 23  1  0
 13 14  1  0
 13 42  1  6
 14 15  1  0
 14 43  1  6
 15 23  1  0
 15 16  1  1
 15 18  1  0
 16 17  2  0
 18 20  1  0
 18 19  1  0
 18 44  1  1
 19 20  1  0
 20 21  1  0
 20 45  1  6
 21 22  1  0
 21 23  1  0
 21 46  1  1
 22 47  1  0
 23 48  1  1
 24 25  1  0
 24 26  1  0
 25 49  1  0
 25 50  1  0
 25 51  1  0
 26 52  1  0
 26 53  1  0
 26 54  1  0
M  END
>  <i_m_ct_stereo_status>  (111) 
1

>  <s_m_source_file>  (111) 
/var/tmp/pbs.5076255.sched01/tmpmmp70uc3/38qnywpnyg.sdf

>  <i_m_source_file_index>  (111) 
12

>  <i_lp_mmshare_version>  (111) 
48012

>  <i_f3d_flags>  (111) 
0

>  <s_epik_input>  (111) 
W0NIM11bQ0BASF0oW0NAXTEyMylbQ0gyXVtDQEBdNChbT0hdKVtDQEBIXShDMyhbQ0gzXSlbQ0gzXSlbQ0gyXUMoPVtDSDJdKVtDQEhdNVtDQF02KEMyPU8pW0NASF03W0NASF0oTzcpW0NAQEhdKFtPSF0pW0NAQEhdNltDQEhdNVtDQEhdNFtDSDJdMQ==

>  <s_epik_cmdline>  (111) 
J2VwaWtfcHl0aG9uJywgJy1waHQnLCAnMi4wJywgJy1waCcsICc3LjAnLCAnLXRuJywgJzgnLCAnLW1hJywgJzIwMCcsICctaW1hZScsICc8aW5maWxlLm1hZT4nLCAnLW9tYWUnLCAnPG91dGZpbGUubWFlPic=

>  <r_lp_tautomer_probability>  (111) 
1

>  <r_epik_Ionization_Penalty>  (111) 
1.13139e-06

>  <r_epik_Ionization_Penalty_Charging>  (111) 
0

>  <r_epik_Ionization_Penalty_Neutral>  (111) 
1.13139e-06

>  <r_epik_State_Penalty>  (111) 
-0

>  <r_epik_Charging_Adjusted_Penalty>  (111) 
0

>  <i_epik_Tot_Q>  (111) 
0

>  <i_epik_Tot_abs_Q>  (111) 
0

>  <s_lp_Force_Field>  (111) 
OPLS3e

>  <r_lp_Energy>  (111) 
230.973

>  <b_lp_Chiralities_Consistent>  (111) 
1

>  <s_lp_Variant>  (111) 
34:0-1

>  <s_i_glide_gridfile>  (111) 
pfpi4k_grid

>  <i_i_glide_lignum>  (111) 
12

>  <i_i_glide_rotatable_bonds>  (111) 
2

>  <r_i_docking_score>  (111) 
-4.58235

>  <r_i_glide_ligand_efficiency>  (111) 
-0.176244

>  <r_i_glide_ligand_efficiency_sa>  (111) 
-0.522123

>  <r_i_glide_ligand_efficiency_ln>  (111) 
-1.07615

>  <r_i_glide_gscore>  (111) 
-4.58235

>  <r_i_glide_lipo>  (111) 
-0.776335

>  <r_i_glide_hbond>  (111) 
-0.604845

>  <r_i_glide_metal>  (111) 
-0

>  <r_i_glide_rewards>  (111) 
-1.03247

>  <r_i_glide_evdw>  (111) 
-17.6169

>  <r_i_glide_ecoul>  (111) 
-8.5857

>  <r_i_glide_erotb>  (111) 
0

>  <r_i_glide_esite>  (111) 
0

>  <r_i_glide_emodel>  (111) 
-31.8529

>  <r_i_glide_energy>  (111) 
-26.2026

>  <r_i_glide_einternal>  (111) 
0.627236

>  <r_i_glide_intrahb_reward>  (111) 
-0

>  <i_i_glide_confnum>  (111) 
1

>  <i_i_glide_posenum>  (111) 
36

>  <r_i_glide_eff_state_penalty>  (111) 
0

>  <ligand_id>  (111) 
34

>  <original_smiles>  (111) 
C=C1CC2C3(O)CC(C)C4(CC3C3C1C1(C4=O)C4OC4C(O)C31)C2(C)C

>  <smiles>  (111) 
[H]OC1([H])C2([H])OC2([H])C23C(=O)C45C([H])([H])C6([H])C([H])(C2([H])C(=C([H])[H])C([H])([H])C([H])(C6(O[H])C([H])([H])C4([H])C([H])([H])[H])C5(C([H])([H])[H])C([H])([H])[H])C13[H]

$$$$
34:0:1
     RDKit          3D

 54 60  0  0  1  0  0  0  0  0999 V2000
    7.7299   -3.2670   -1.3802 C   0  0  0  0  0  0  0  0  0  0  0  0
    6.8320   -2.6321   -0.5970 C   0  0  0  0  0  0  0  0  0  0  0  0
    7.1633   -2.3453    0.8285 C   0  0  0  0  0  0  0  0  0  0  0  0
    6.0158   -2.5835    1.7971 C   0  0  1  0  0  0  0  0  0  0  0  0
    5.2011   -1.3471    2.2304 C   0  0  2  0  0  0  0  0  0  0  0  0
    5.9795   -0.3760    2.8792 O   0  0  0  0  0  0  0  0  0  0  0  0
    4.1293   -1.8826    3.3466 C   0  0  0  0  0  0  0  0  0  0  0  0
    3.0613   -2.9264    2.6834 C   0  0  1  0  0  0  0  0  0  0  0  0
    1.5530   -2.6930    2.9546 C   0  0  0  0  0  0  0  0  0  0  0  0
    3.6177   -3.0172    1.2136 C   0  0  2  0  0  0  0  0  0  0  0  0
    3.2831   -1.4636    1.0343 C   0  0  0  0  0  0  0  0  0  0  0  0
    4.5111   -0.6862    0.9557 C   0  0  2  0  0  0  0  0  0  0  0  0
    4.9579   -0.8018   -0.5538 C   0  0  1  0  0  0  0  0  0  0  0  0
    5.5683   -2.0391   -1.1856 C   0  0  2  0  0  0  0  0  0  0  0  0
    4.0971   -2.6426   -1.3980 C   0  0  2  0  0  0  0  0  0  0  0  0
    3.1991   -3.3500   -0.2465 C   0  0  0  0  0  0  0  0  0  0  0  0
    2.2339   -4.1062   -0.3970 O   0  0  0  0  0  0  0  0  0  0  0  0
    3.8510   -3.2810   -2.7536 C   0  0  2  0  0  0  0  0  0  0  0  0
    4.8437   -3.1418   -3.7706 O   0  0  0  0  0  0  0  0  0  0  0  0
    3.7548   -2.2113   -3.8002 C   0  0  2  0  0  0  0  0  0  0  0  0
    3.9654   -0.8377   -3.1815 C   0  0  1  0  0  0  0  0  0  0  0  0
    3.0294    0.0660   -3.7413 O   0  0  0  0  0  0  0  0  0  0  0  0
    3.8544   -1.1087   -1.6586 C   0  0  2  0  0  0  0  0  0  0  0  0
    5.0511   -3.7572    1.4768 C   0  0  0  0  0  0  0  0  0  0  0  0
    5.4795   -4.8772    0.4396 C   0  0  0  0  0  0  0  0  0  0  0  0
    5.1775   -4.7558    2.7034 C   0  0  0  0  0  0  0  0  0  0  0  0
    7.5206   -3.4391   -2.4209 H   0  0  0  0  0  0  0  0  0  0  0  0
    8.6565   -3.6466   -0.9825 H   0  0  0  0  0  0  0  0  0  0  0  0
    7.9610   -3.0350    1.1072 H   0  0  0  0  0  0  0  0  0  0  0  0
    7.5799   -1.3433    0.9381 H   0  0  0  0  0  0  0  0  0  0  0  0
    6.5182   -2.8502    2.7044 H   0  0  0  0  0  0  0  0  0  0  0  0
    6.4513   -0.7915    3.5802 H   0  0  0  0  0  0  0  0  0  0  0  0
    4.6284   -2.3137    4.2112 H   0  0  0  0  0  0  0  0  0  0  0  0
    3.5890   -1.0274    3.7565 H   0  0  0  0  0  0  0  0  0  0  0  0
    3.1059   -3.8746    3.1986 H   0  0  0  0  0  0  0  0  0  0  0  0
    1.1045   -1.7645    2.5976 H   0  0  0  0  0  0  0  0  0  0  0  0
    1.3474   -2.7482    4.0256 H   0  0  0  0  0  0  0  0  0  0  0  0
    1.0103   -3.5126    2.4902 H   0  0  0  0  0  0  0  0  0  0  0  0
    2.4614   -1.2390    0.3955 H   0  0  0  0  0  0  0  0  0  0  0  0
    2.7416   -0.8917    1.7840 H   0  0  0  0  0  0  0  0  0  0  0  0
    4.2837    0.3589    1.1762 H   0  0  0  0  0  0  0  0  0  0  0  0
    5.5960    0.0205   -0.8303 H   0  0  0  0  0  0  0  0  0  0  0  0
    5.9983   -1.7448   -2.1410 H   0  0  0  0  0  0  0  0  0  0  0  0
    3.2194   -4.1527   -2.8426 H   0  0  0  0  0  0  0  0  0  0  0  0
    3.0680   -2.3171   -4.6413 H   0  0  0  0  0  0  0  0  0  0  0  0
    4.9496   -0.4810   -3.4749 H   0  0  0  0  0  0  0  0  0  0  0  0
    2.9205    0.8334   -3.1845 H   0  0  0  0  0  0  0  0  0  0  0  0
    2.8672   -0.7679   -1.4076 H   0  0  0  0  0  0  0  0  0  0  0  0
    4.8584   -5.7716    0.5237 H   0  0  0  0  0  0  0  0  0  0  0  0
    6.5143   -5.1911    0.5947 H   0  0  0  0  0  0  0  0  0  0  0  0
    5.4171   -4.6460   -0.6166 H   0  0  0  0  0  0  0  0  0  0  0  0
    4.4233   -5.5461    2.6739 H   0  0  0  0  0  0  0  0  0  0  0  0
    5.1188   -4.3027    3.6895 H   0  0  0  0  0  0  0  0  0  0  0  0
    6.1483   -5.2583    2.7309 H   0  0  0  0  0  0  0  0  0  0  0  0
  1  2  2  0
  1 27  1  0
  1 28  1  0
  2 14  1  0
  2  3  1  0
  3  4  1  0
  3 29  1  0
  3 30  1  0
  4 24  1  0
  4  5  1  0
  4 31  1  1
  5 12  1  0
  5  6  1  1
  5  7  1  0
  6 32  1  0
  7  8  1  0
  7 33  1  0
  7 34  1  0
  8  9  1  0
  8 10  1  0
  8 35  1  1
  9 36  1  0
  9 37  1  0
  9 38  1  0
 10 16  1  0
 10 11  1  0
 10 24  1  1
 11 12  1  0
 11 39  1  0
 11 40  1  0
 12 13  1  0
 12 41  1  1
 13 23  1  0
 13 14  1  0
 13 42  1  6
 14 15  1  0
 14 43  1  6
 15 23  1  0
 15 16  1  1
 15 18  1  0
 16 17  2  0
 18 20  1  0
 18 19  1  0
 18 44  1  1
 19 20  1  0
 20 21  1  0
 20 45  1  6
 21 22  1  0
 21 23  1  0
 21 46  1  1
 22 47  1  0
 23 48  1  1
 24 25  1  0
 24 26  1  0
 25 49  1  0
 25 50  1  0
 25 51  1  0
 26 52  1  0
 26 53  1  0
 26 54  1  0
M  END
>  <i_m_ct_stereo_status>  (112) 
1

>  <s_m_source_file>  (112) 
/var/tmp/pbs.5076255.sched01/tmpmmp70uc3/38qnywpnyg.sdf

>  <i_m_source_file_index>  (112) 
12

>  <i_lp_mmshare_version>  (112) 
48012

>  <i_f3d_flags>  (112) 
0

>  <s_epik_input>  (112) 
W0NIM11bQ0BASF0oW0NAXTEyMylbQ0gyXVtDQEBdNChbT0hdKVtDQEBIXShDMyhbQ0gzXSlbQ0gzXSlbQ0gyXUMoPVtDSDJdKVtDQEhdNVtDQF02KEMyPU8pW0NASF03W0NASF0oTzcpW0NAQEhdKFtPSF0pW0NAQEhdNltDQEhdNVtDQEhdNFtDSDJdMQ==

>  <s_epik_cmdline>  (112) 
J2VwaWtfcHl0aG9uJywgJy1waHQnLCAnMi4wJywgJy1waCcsICc3LjAnLCAnLXRuJywgJzgnLCAnLW1hJywgJzIwMCcsICctaW1hZScsICc8aW5maWxlLm1hZT4nLCAnLW9tYWUnLCAnPG91dGZpbGUubWFlPic=

>  <r_lp_tautomer_probability>  (112) 
1

>  <r_epik_Ionization_Penalty>  (112) 
1.13139e-06

>  <r_epik_Ionization_Penalty_Charging>  (112) 
0

>  <r_epik_Ionization_Penalty_Neutral>  (112) 
1.13139e-06

>  <r_epik_State_Penalty>  (112) 
-0

>  <r_epik_Charging_Adjusted_Penalty>  (112) 
0

>  <i_epik_Tot_Q>  (112) 
0

>  <i_epik_Tot_abs_Q>  (112) 
0

>  <s_lp_Force_Field>  (112) 
OPLS3e

>  <r_lp_Energy>  (112) 
230.973

>  <b_lp_Chiralities_Consistent>  (112) 
1

>  <s_lp_Variant>  (112) 
34:0-1

>  <s_i_glide_gridfile>  (112) 
pfpi4k_grid

>  <i_i_glide_lignum>  (112) 
12

>  <i_i_glide_rotatable_bonds>  (112) 
2

>  <r_i_docking_score>  (112) 
-3.98014

>  <r_i_glide_ligand_efficiency>  (112) 
-0.153082

>  <r_i_glide_ligand_efficiency_sa>  (112) 
-0.453505

>  <r_i_glide_ligand_efficiency_ln>  (112) 
-0.934722

>  <r_i_glide_gscore>  (112) 
-3.98014

>  <r_i_glide_lipo>  (112) 
-0.76928

>  <r_i_glide_hbond>  (112) 
-0.367385

>  <r_i_glide_metal>  (112) 
-0

>  <r_i_glide_rewards>  (112) 
-1.02881

>  <r_i_glide_evdw>  (112) 
-18.3125

>  <r_i_glide_ecoul>  (112) 
-5.99362

>  <r_i_glide_erotb>  (112) 
0

>  <r_i_glide_esite>  (112) 
0

>  <r_i_glide_emodel>  (112) 
-29.0938

>  <r_i_glide_energy>  (112) 
-24.3061

>  <r_i_glide_einternal>  (112) 
0.564939

>  <r_i_glide_intrahb_reward>  (112) 
-0

>  <i_i_glide_confnum>  (112) 
2

>  <i_i_glide_posenum>  (112) 
5

>  <r_i_glide_eff_state_penalty>  (112) 
0

>  <ligand_id>  (112) 
34

>  <original_smiles>  (112) 
C=C1CC2C3(O)CC(C)C4(CC3C3C1C1(C4=O)C4OC4C(O)C31)C2(C)C

>  <smiles>  (112) 
[H]OC1([H])C2([H])OC2([H])C23C(=O)C45C([H])([H])C6([H])C([H])(C2([H])C(=C([H])[H])C([H])([H])C([H])(C6(O[H])C([H])([H])C4([H])C([H])([H])[H])C5(C([H])([H])[H])C([H])([H])[H])C13[H]

$$$$
34:0:2
     RDKit          3D

 54 60  0  0  1  0  0  0  0  0999 V2000
    6.7071   -1.4965    0.6195 C   0  0  0  0  0  0  0  0  0  0  0  0
    5.5627   -2.0028    1.0713 C   0  0  0  0  0  0  0  0  0  0  0  0
    5.2297   -1.9538    2.5440 C   0  0  0  0  0  0  0  0  0  0  0  0
    4.6632   -3.2522    3.1226 C   0  0  1  0  0  0  0  0  0  0  0  0
    3.1221   -3.3063    3.2188 C   0  0  2  0  0  0  0  0  0  0  0  0
    2.6400   -2.2914    4.0647 O   0  0  0  0  0  0  0  0  0  0  0  0
    2.7637   -4.7548    3.9091 C   0  0  0  0  0  0  0  0  0  0  0  0
    3.1738   -6.0061    2.9327 C   0  0  1  0  0  0  0  0  0  0  0  0
    2.1315   -7.1373    2.6802 C   0  0  0  0  0  0  0  0  0  0  0  0
    3.8305   -5.2127    1.7491 C   0  0  2  0  0  0  0  0  0  0  0  0
    2.4057   -4.5718    1.4369 C   0  0  0  0  0  0  0  0  0  0  0  0
    2.4470   -3.1460    1.7812 C   0  0  2  0  0  0  0  0  0  0  0  0
    3.0393   -2.4380    0.4935 C   0  0  1  0  0  0  0  0  0  0  0  0
    4.4944   -2.4865    0.1094 C   0  0  2  0  0  0  0  0  0  0  0  0
    4.2754   -3.9156   -0.5619 C   0  0  2  0  0  0  0  0  0  0  0  0
    4.1854   -5.3322    0.2479 C   0  0  0  0  0  0  0  0  0  0  0  0
    4.3992   -6.4652   -0.1660 O   0  0  0  0  0  0  0  0  0  0  0  0
    4.9615   -4.0863   -1.9107 C   0  0  2  0  0  0  0  0  0  0  0  0
    5.5407   -2.9511   -2.5730 O   0  0  0  0  0  0  0  0  0  0  0  0
    4.2066   -3.3004   -2.9478 C   0  0  2  0  0  0  0  0  0  0  0  0
    3.0496   -2.5438   -2.3119 C   0  0  1  0  0  0  0  0  0  0  0  0
    1.8812   -2.6615   -3.0809 O   0  0  0  0  0  0  0  0  0  0  0  0
    2.9238   -3.1977   -0.9044 C   0  0  2  0  0  0  0  0  0  0  0  0
    5.1539   -4.5841    2.4798 C   0  0  0  0  0  0  0  0  0  0  0  0
    6.4894   -4.6251    1.6255 C   0  0  0  0  0  0  0  0  0  0  0  0
    5.7907   -5.4148    3.6655 C   0  0  0  0  0  0  0  0  0  0  0  0
    6.9280   -1.4821   -0.4387 H   0  0  0  0  0  0  0  0  0  0  0  0
    7.4447   -1.0743    1.2881 H   0  0  0  0  0  0  0  0  0  0  0  0
    6.1741   -1.7673    3.0506 H   0  0  0  0  0  0  0  0  0  0  0  0
    4.6028   -1.0909    2.7623 H   0  0  0  0  0  0  0  0  0  0  0  0
    4.9963   -3.2382    4.1591 H   0  0  0  0  0  0  0  0  0  0  0  0
    2.8826   -1.4642    3.6716 H   0  0  0  0  0  0  0  0  0  0  0  0
    3.2198   -4.8307    4.8893 H   0  0  0  0  0  0  0  0  0  0  0  0
    1.6952   -4.7918    4.1144 H   0  0  0  0  0  0  0  0  0  0  0  0
    3.8752   -6.6455    3.4440 H   0  0  0  0  0  0  0  0  0  0  0  0
    1.1836   -6.8634    2.2211 H   0  0  0  0  0  0  0  0  0  0  0  0
    1.8820   -7.6096    3.6316 H   0  0  0  0  0  0  0  0  0  0  0  0
    2.5725   -7.9167    2.0592 H   0  0  0  0  0  0  0  0  0  0  0  0
    1.9196   -4.9483    0.5482 H   0  0  0  0  0  0  0  0  0  0  0  0
    1.5057   -4.8746    1.9744 H   0  0  0  0  0  0  0  0  0  0  0  0
    1.4232   -2.7832    1.9391 H   0  0  0  0  0  0  0  0  0  0  0  0
    2.6761   -1.4187    0.4009 H   0  0  0  0  0  0  0  0  0  0  0  0
    4.6487   -1.7236   -0.6596 H   0  0  0  0  0  0  0  0  0  0  0  0
    5.3401   -5.0461   -2.1833 H   0  0  0  0  0  0  0  0  0  0  0  0
    4.0678   -3.7086   -3.9539 H   0  0  0  0  0  0  0  0  0  0  0  0
    3.2807   -1.4820   -2.2996 H   0  0  0  0  0  0  0  0  0  0  0  0
    1.1970   -2.1826   -2.6279 H   0  0  0  0  0  0  0  0  0  0  0  0
    2.0678   -3.8507   -0.9868 H   0  0  0  0  0  0  0  0  0  0  0  0
    6.8746   -5.6405    1.5129 H   0  0  0  0  0  0  0  0  0  0  0  0
    7.2772   -4.0295    2.0698 H   0  0  0  0  0  0  0  0  0  0  0  0
    6.4619   -4.2584    0.6088 H   0  0  0  0  0  0  0  0  0  0  0  0
    6.0365   -6.4382    3.3769 H   0  0  0  0  0  0  0  0  0  0  0  0
    5.1975   -5.4559    4.5752 H   0  0  0  0  0  0  0  0  0  0  0  0
    6.7228   -4.9945    4.0235 H   0  0  0  0  0  0  0  0  0  0  0  0
  1  2  2  0
  1 27  1  0
  1 28  1  0
  2 14  1  0
  2  3  1  0
  3  4  1  0
  3 29  1  0
  3 30  1  0
  4 24  1  0
  4  5  1  0
  4 31  1  1
  5 12  1  0
  5  6  1  1
  5  7  1  0
  6 32  1  0
  7  8  1  0
  7 33  1  0
  7 34  1  0
  8  9  1  0
  8 10  1  0
  8 35  1  1
  9 36  1  0
  9 37  1  0
  9 38  1  0
 10 16  1  0
 10 11  1  0
 10 24  1  1
 11 12  1  0
 11 39  1  0
 11 40  1  0
 12 13  1  0
 12 41  1  1
 13 23  1  0
 13 14  1  0
 13 42  1  6
 14 15  1  0
 14 43  1  6
 15 23  1  0
 15 16  1  1
 15 18  1  0
 16 17  2  0
 18 20  1  0
 18 19  1  0
 18 44  1  6
 19 20  1  0
 20 21  1  0
 20 45  1  6
 21 22  1  0
 21 23  1  0
 21 46  1  1
 22 47  1  0
 23 48  1  6
 24 25  1  0
 24 26  1  0
 25 49  1  0
 25 50  1  0
 25 51  1  0
 26 52  1  0
 26 53  1  0
 26 54  1  0
M  END
>  <i_m_ct_stereo_status>  (113) 
1

>  <s_m_source_file>  (113) 
/var/tmp/pbs.5076255.sched01/tmpmmp70uc3/38qnywpnyg.sdf

>  <i_m_source_file_index>  (113) 
12

>  <i_lp_mmshare_version>  (113) 
48012

>  <i_f3d_flags>  (113) 
0

>  <s_epik_input>  (113) 
W0NIM11bQ0BASF0oW0NAXTEyMylbQ0gyXVtDQEBdNChbT0hdKVtDQEBIXShDMyhbQ0gzXSlbQ0gzXSlbQ0gyXUMoPVtDSDJdKVtDQEhdNVtDQF02KEMyPU8pW0NASF03W0NASF0oTzcpW0NAQEhdKFtPSF0pW0NAQEhdNltDQEhdNVtDQEhdNFtDSDJdMQ==

>  <s_epik_cmdline>  (113) 
J2VwaWtfcHl0aG9uJywgJy1waHQnLCAnMi4wJywgJy1waCcsICc3LjAnLCAnLXRuJywgJzgnLCAnLW1hJywgJzIwMCcsICctaW1hZScsICc8aW5maWxlLm1hZT4nLCAnLW9tYWUnLCAnPG91dGZpbGUubWFlPic=

>  <r_lp_tautomer_probability>  (113) 
1

>  <r_epik_Ionization_Penalty>  (113) 
1.13139e-06

>  <r_epik_Ionization_Penalty_Charging>  (113) 
0

>  <r_epik_Ionization_Penalty_Neutral>  (113) 
1.13139e-06

>  <r_epik_State_Penalty>  (113) 
-0

>  <r_epik_Charging_Adjusted_Penalty>  (113) 
0

>  <i_epik_Tot_Q>  (113) 
0

>  <i_epik_Tot_abs_Q>  (113) 
0

>  <s_lp_Force_Field>  (113) 
OPLS3e

>  <r_lp_Energy>  (113) 
230.973

>  <b_lp_Chiralities_Consistent>  (113) 
1

>  <s_lp_Variant>  (113) 
34:0-1

>  <s_i_glide_gridfile>  (113) 
pfpi4k_grid

>  <i_i_glide_lignum>  (113) 
12

>  <i_i_glide_rotatable_bonds>  (113) 
2

>  <r_i_docking_score>  (113) 
-2.59229

>  <r_i_glide_ligand_efficiency>  (113) 
-0.0997036

>  <r_i_glide_ligand_efficiency_sa>  (113) 
-0.295371

>  <r_i_glide_ligand_efficiency_ln>  (113) 
-0.608792

>  <r_i_glide_gscore>  (113) 
-2.59229

>  <r_i_glide_lipo>  (113) 
-0.317999

>  <r_i_glide_hbond>  (113) 
-0.098116

>  <r_i_glide_metal>  (113) 
-0

>  <r_i_glide_rewards>  (113) 
-0.99966

>  <r_i_glide_evdw>  (113) 
-21.1009

>  <r_i_glide_ecoul>  (113) 
-0.809829

>  <r_i_glide_erotb>  (113) 
0

>  <r_i_glide_esite>  (113) 
0

>  <r_i_glide_emodel>  (113) 
-25.0443

>  <r_i_glide_energy>  (113) 
-21.9107

>  <r_i_glide_einternal>  (113) 
0.316606

>  <r_i_glide_intrahb_reward>  (113) 
-0

>  <i_i_glide_confnum>  (113) 
2

>  <i_i_glide_posenum>  (113) 
35

>  <r_i_glide_eff_state_penalty>  (113) 
0

>  <ligand_id>  (113) 
34

>  <original_smiles>  (113) 
C=C1CC2C3(O)CC(C)C4(CC3C3C1C1(C4=O)C4OC4C(O)C31)C2(C)C

>  <smiles>  (113) 
[H]OC1([H])C2([H])OC2([H])C23C(=O)C45C([H])([H])C6([H])C([H])(C2([H])C(=C([H])[H])C([H])([H])C([H])(C6(O[H])C([H])([H])C4([H])C([H])([H])[H])C5(C([H])([H])[H])C([H])([H])[H])C13[H]

$$$$
35:0:0
     RDKit          3D

 62 68  0  0  1  0  0  0  0  0999 V2000
    4.8425   -7.7859    3.2751 C   0  0  0  0  0  0  0  0  0  0  0  0
    3.4183   -7.8859    3.8578 C   0  0  2  0  0  0  0  0  0  0  0  0
    2.5746   -6.6811    3.4842 C   0  0  0  0  0  0  0  0  0  0  0  0
    2.1394   -5.8940    4.4873 C   0  0  0  0  0  0  0  0  0  0  0  0
    3.2960   -5.4452    5.4187 C   0  0  1  0  0  0  0  0  0  0  0  0
    3.2076   -4.0802    6.1275 C   0  0  0  0  0  0  0  0  0  0  0  0
    3.5695   -2.9119    5.2368 C   0  0  0  0  0  0  0  0  0  0  0  0
    5.0147   -2.5479    4.9692 C   0  0  0  0  0  0  0  0  0  0  0  0
    4.1587   -1.6580    5.8438 C   0  0  0  0  0  0  0  0  0  0  0  0
    2.9267   -6.7534    6.1304 C   0  0  2  0  0  0  0  0  0  0  0  0
    3.0720   -6.9133    7.6336 C   0  0  0  0  0  0  0  0  0  0  0  0
    2.0781   -7.9977    8.0970 C   0  0  0  0  0  0  0  0  0  0  0  0
    1.4307   -8.7340    6.8853 C   0  0  1  0  0  0  0  0  0  0  0  0
    0.5442   -9.7064    7.4231 O   0  0  0  0  0  0  0  0  0  0  0  0
    0.6078   -7.7221    6.0203 C   0  0  2  0  0  0  0  0  0  0  0  0
   -0.1597   -8.4263    4.8719 C   0  0  1  0  0  0  0  0  0  0  0  0
   -0.5956   -7.5490    3.8464 O   0  0  0  0  0  0  0  0  0  0  0  0
   -0.4041   -8.2638    2.6716 C   0  0  0  0  0  0  0  0  0  0  0  0
   -1.6929   -9.0540    2.3282 C   0  0  0  0  0  0  0  0  0  0  0  0
   -0.0792   -7.2889    1.5363 C   0  0  0  0  0  0  0  0  0  0  0  0
    0.6781   -9.1213    2.8575 O   0  0  0  0  0  0  0  0  0  0  0  0
    0.5393   -9.6154    4.1745 C   0  0  1  0  0  0  0  0  0  0  0  0
    1.7932  -10.2102    4.8882 C   0  0  1  0  0  0  0  0  0  0  0  0
    2.6285  -10.9524    4.0130 O   0  0  0  0  0  0  0  0  0  0  0  0
    2.5390   -9.3209    5.9450 C   0  0  2  0  0  0  0  0  0  0  0  0
    3.5218  -10.2375    6.7193 C   0  0  0  0  0  0  0  0  0  0  0  0
    3.3980   -8.0897    5.4207 C   0  0  1  0  0  0  0  0  0  0  0  0
    1.4714   -6.4421    5.7829 C   0  0  2  0  0  0  0  0  0  0  0  0
    4.7997   -7.6812    2.1891 H   0  0  0  0  0  0  0  0  0  0  0  0
    5.3959   -8.7026    3.4934 H   0  0  0  0  0  0  0  0  0  0  0  0
    5.4117   -6.9433    3.6744 H   0  0  0  0  0  0  0  0  0  0  0  0
    2.9789   -8.6986    3.3033 H   0  0  0  0  0  0  0  0  0  0  0  0
    2.8951   -6.1935    2.5749 H   0  0  0  0  0  0  0  0  0  0  0  0
    4.3011   -5.5558    5.0147 H   0  0  0  0  0  0  0  0  0  0  0  0
    2.2491   -3.8762    6.5966 H   0  0  0  0  0  0  0  0  0  0  0  0
    3.9270   -4.0981    6.9541 H   0  0  0  0  0  0  0  0  0  0  0  0
    2.8826   -2.7664    4.4030 H   0  0  0  0  0  0  0  0  0  0  0  0
    5.8033   -3.1231    5.4523 H   0  0  0  0  0  0  0  0  0  0  0  0
    5.2622   -2.1737    3.9797 H   0  0  0  0  0  0  0  0  0  0  0  0
    3.8334   -0.7099    5.4296 H   0  0  0  0  0  0  0  0  0  0  0  0
    4.3708   -1.6508    6.9109 H   0  0  0  0  0  0  0  0  0  0  0  0
    4.0917   -7.1446    7.9330 H   0  0  0  0  0  0  0  0  0  0  0  0
    2.7969   -5.9823    8.1299 H   0  0  0  0  0  0  0  0  0  0  0  0
    2.5647   -8.6945    8.7819 H   0  0  0  0  0  0  0  0  0  0  0  0
    1.2744   -7.5258    8.6672 H   0  0  0  0  0  0  0  0  0  0  0  0
    1.0109  -10.5328    7.5594 H   0  0  0  0  0  0  0  0  0  0  0  0
   -0.1910   -7.3737    6.6822 H   0  0  0  0  0  0  0  0  0  0  0  0
   -1.0611   -8.8518    5.3124 H   0  0  0  0  0  0  0  0  0  0  0  0
   -2.0177   -9.7095    3.1360 H   0  0  0  0  0  0  0  0  0  0  0  0
   -1.5123   -9.6591    1.4373 H   0  0  0  0  0  0  0  0  0  0  0  0
   -2.5099   -8.3570    2.1218 H   0  0  0  0  0  0  0  0  0  0  0  0
    0.7194   -6.6180    1.8224 H   0  0  0  0  0  0  0  0  0  0  0  0
   -0.9581   -6.6952    1.2931 H   0  0  0  0  0  0  0  0  0  0  0  0
    0.2382   -7.8515    0.6580 H   0  0  0  0  0  0  0  0  0  0  0  0
   -0.1811  -10.4325    4.0978 H   0  0  0  0  0  0  0  0  0  0  0  0
    1.3749  -11.0188    5.4835 H   0  0  0  0  0  0  0  0  0  0  0  0
    2.1277  -11.6594    3.6349 H   0  0  0  0  0  0  0  0  0  0  0  0
    4.2609  -10.6754    6.0479 H   0  0  0  0  0  0  0  0  0  0  0  0
    3.0121  -11.0585    7.2183 H   0  0  0  0  0  0  0  0  0  0  0  0
    4.0895   -9.6960    7.4740 H   0  0  0  0  0  0  0  0  0  0  0  0
    4.4408   -8.2512    5.7114 H   0  0  0  0  0  0  0  0  0  0  0  0
    1.0630   -5.6452    6.4093 H   0  0  0  0  0  0  0  0  0  0  0  0
  1  2  1  0
  1 29  1  0
  1 30  1  0
  1 31  1  0
  2 27  1  0
  2  3  1  0
  2 32  1  6
  3  4  2  0
  3 33  1  0
  4 28  1  0
  4  5  1  0
  5  6  1  0
  5 10  1  0
  5 34  1  6
  6  7  1  0
  6 35  1  0
  6 36  1  0
  7  9  1  0
  7  8  1  0
  7 37  1  0
  8  9  1  0
  8 38  1  0
  8 39  1  0
  9 40  1  0
  9 41  1  0
 10 27  1  0
 10 28  1  0
 10 11  1  1
 11 12  1  0
 11 42  1  0
 11 43  1  0
 12 13  1  0
 12 44  1  0
 12 45  1  0
 13 25  1  0
 13 14  1  1
 13 15  1  0
 14 46  1  0
 15 16  1  0
 15 28  1  0
 15 47  1  1
 16 22  1  0
 16 17  1  0
 16 48  1  1
 17 18  1  0
 18 19  1  0
 18 20  1  0
 18 21  1  0
 19 49  1  0
 19 50  1  0
 19 51  1  0
 20 52  1  0
 20 53  1  0
 20 54  1  0
 21 22  1  0
 22 23  1  0
 22 55  1  6
 23 24  1  0
 23 25  1  0
 23 56  1  1
 24 57  1  0
 25 26  1  1
 25 27  1  0
 26 58  1  0
 26 59  1  0
 26 60  1  0
 27 61  1  1
 28 62  1  1
M  END
>  <i_m_ct_stereo_status>  (114) 
1

>  <s_m_source_file>  (114) 
/var/tmp/pbs.5076255.sched01/tmpmmp70uc3/38qnywpnyg.sdf

>  <i_m_source_file_index>  (114) 
13

>  <i_lp_mmshare_version>  (114) 
48012

>  <i_f3d_flags>  (114) 
0

>  <s_epik_input>  (114) 
W0NIMl0xW0NIMl1bQ0hdMVtDSDJdW0NAQEhdMkMoPVtDSF1bQ0BIXTNbQ0gzXSlbQ0BIXTRbQ0BIXShbQ0BdKFtPSF0pKFtDSDJdW0NIMl01KVtDQF02KFtDSDNdKVtDQEBIXTNbQ0BAXTI0NSlbQ0BASF03W0NASF0oW0NASF02W09IXSlPQyhPNykoW0NIM10pW0NIM10=

>  <s_epik_cmdline>  (114) 
J2VwaWtfcHl0aG9uJywgJy1waHQnLCAnMi4wJywgJy1waCcsICc3LjAnLCAnLXRuJywgJzgnLCAnLW1hJywgJzIwMCcsICctaW1hZScsICc8aW5maWxlLm1hZT4nLCAnLW9tYWUnLCAnPG91dGZpbGUubWFlPic=

>  <r_lp_tautomer_probability>  (114) 
1

>  <r_epik_Ionization_Penalty>  (114) 
2.97332e-07

>  <r_epik_Ionization_Penalty_Charging>  (114) 
0

>  <r_epik_Ionization_Penalty_Neutral>  (114) 
2.97332e-07

>  <r_epik_State_Penalty>  (114) 
-0

>  <r_epik_Charging_Adjusted_Penalty>  (114) 
0

>  <i_epik_Tot_Q>  (114) 
0

>  <i_epik_Tot_abs_Q>  (114) 
0

>  <s_lp_Force_Field>  (114) 
OPLS3e

>  <r_lp_Energy>  (114) 
124.794

>  <b_lp_Chiralities_Consistent>  (114) 
1

>  <s_lp_Variant>  (114) 
35:0-1

>  <s_i_glide_gridfile>  (114) 
pfpi4k_grid

>  <i_i_glide_lignum>  (114) 
13

>  <i_i_glide_rotatable_bonds>  (114) 
4

>  <r_i_docking_score>  (114) 
-2.60595

>  <r_i_glide_ligand_efficiency>  (114) 
-0.0930696

>  <r_i_glide_ligand_efficiency_sa>  (114) 
-0.282614

>  <r_i_glide_ligand_efficiency_ln>  (114) 
-0.60153

>  <r_i_glide_gscore>  (114) 
-2.60595

>  <r_i_glide_lipo>  (114) 
-0.302235

>  <r_i_glide_hbond>  (114) 
-0.16

>  <r_i_glide_metal>  (114) 
-0

>  <r_i_glide_rewards>  (114) 
-0.773698

>  <r_i_glide_evdw>  (114) 
-16.559

>  <r_i_glide_ecoul>  (114) 
-5.02567

>  <r_i_glide_erotb>  (114) 
0.260564

>  <r_i_glide_esite>  (114) 
-0.0487803

>  <r_i_glide_emodel>  (114) 
-24.8584

>  <r_i_glide_energy>  (114) 
-21.5847

>  <r_i_glide_einternal>  (114) 
1.23978

>  <r_i_glide_intrahb_reward>  (114) 
-0

>  <i_i_glide_confnum>  (114) 
1

>  <i_i_glide_posenum>  (114) 
1

>  <r_i_glide_eff_state_penalty>  (114) 
0

>  <ligand_id>  (114) 
35

>  <original_smiles>  (114) 
CC1C=C2C(CC3CC3)C34CCC5(O)C(C6OC(C)(C)OC6C(O)C5(C)C13)C24

>  <smiles>  (114) 
[H]OC1([H])C2([H])OC(C([H])([H])[H])(C([H])([H])[H])OC2([H])C2([H])C3([H])C4=C([H])C([H])(C([H])([H])[H])C5([H])C3(C([H])([H])C([H])([H])C2(O[H])C15C([H])([H])[H])C4([H])C([H])([H])C1([H])C([H])([H])C1([H])[H]

$$$$
35:0:1
     RDKit          3D

 62 68  0  0  1  0  0  0  0  0999 V2000
    3.6260   -6.2127    6.1404 C   0  0  0  0  0  0  0  0  0  0  0  0
    3.7083   -6.7231    4.6937 C   0  0  2  0  0  0  0  0  0  0  0  0
    2.5278   -6.2600    3.8667 C   0  0  0  0  0  0  0  0  0  0  0  0
    1.7216   -7.1905    3.3514 C   0  0  0  0  0  0  0  0  0  0  0  0
    1.2114   -8.1815    4.4423 C   0  0  1  0  0  0  0  0  0  0  0  0
   -0.1984   -8.7882    4.3665 C   0  0  0  0  0  0  0  0  0  0  0  0
   -0.8504   -8.8736    3.0086 C   0  0  0  0  0  0  0  0  0  0  0  0
   -1.2039   -7.5764    2.3180 C   0  0  0  0  0  0  0  0  0  0  0  0
   -2.2852   -8.5228    2.7769 C   0  0  0  0  0  0  0  0  0  0  0  0
    2.4899   -8.9252    4.0512 C   0  0  2  0  0  0  0  0  0  0  0  0
    2.5812  -10.4342    4.1224 C   0  0  0  0  0  0  0  0  0  0  0  0
    3.6332  -10.8875    3.1042 C   0  0  0  0  0  0  0  0  0  0  0  0
    4.4446   -9.6807    2.5412 C   0  0  1  0  0  0  0  0  0  0  0  0
    5.4108  -10.2573    1.6676 O   0  0  0  0  0  0  0  0  0  0  0  0
    3.4964   -8.7266    1.7423 C   0  0  2  0  0  0  0  0  0  0  0  0
    4.2370   -7.5635    1.0387 C   0  0  1  0  0  0  0  0  0  0  0  0
    3.3963   -6.4721    0.6864 O   0  0  0  0  0  0  0  0  0  0  0  0
    4.1424   -5.3365    0.9331 C   0  0  0  0  0  0  0  0  0  0  0  0
    4.9455   -4.9612   -0.3373 C   0  0  0  0  0  0  0  0  0  0  0  0
    3.2087   -4.1811    1.3130 C   0  0  0  0  0  0  0  0  0  0  0  0
    4.9934   -5.6186    1.9976 O   0  0  0  0  0  0  0  0  0  0  0  0
    5.4307   -6.9542    1.7838 C   0  0  1  0  0  0  0  0  0  0  0  0
    5.9833   -7.7642    3.0000 C   0  0  1  0  0  0  0  0  0  0  0  0
    6.7441   -6.9499    3.8806 O   0  0  0  0  0  0  0  0  0  0  0  0
    5.0571   -8.8195    3.6977 C   0  0  2  0  0  0  0  0  0  0  0  0
    5.9381   -9.6911    4.6201 C   0  0  0  0  0  0  0  0  0  0  0  0
    3.8440   -8.2948    4.5833 C   0  0  1  0  0  0  0  0  0  0  0  0
    2.2185   -8.4772    2.6089 C   0  0  2  0  0  0  0  0  0  0  0  0
    3.5628   -5.1241    6.1510 H   0  0  0  0  0  0  0  0  0  0  0  0
    4.5259   -6.4974    6.6845 H   0  0  0  0  0  0  0  0  0  0  0  0
    2.7607   -6.6047    6.6778 H   0  0  0  0  0  0  0  0  0  0  0  0
    4.5241   -6.1695    4.2660 H   0  0  0  0  0  0  0  0  0  0  0  0
    2.0741   -5.3456    4.2377 H   0  0  0  0  0  0  0  0  0  0  0  0
    1.3705   -7.8583    5.4779 H   0  0  0  0  0  0  0  0  0  0  0  0
   -0.1915   -9.8069    4.7867 H   0  0  0  0  0  0  0  0  0  0  0  0
   -0.8641   -8.2389    5.0297 H   0  0  0  0  0  0  0  0  0  0  0  0
   -0.5473   -9.7453    2.4142 H   0  0  0  0  0  0  0  0  0  0  0  0
   -1.0499   -6.6666    2.8984 H   0  0  0  0  0  0  0  0  0  0  0  0
   -0.9332   -7.5183    1.2636 H   0  0  0  0  0  0  0  0  0  0  0  0
   -2.7904   -9.1207    2.0200 H   0  0  0  0  0  0  0  0  0  0  0  0
   -2.8786   -8.2751    3.6524 H   0  0  0  0  0  0  0  0  0  0  0  0
    2.7691  -10.8121    5.1256 H   0  0  0  0  0  0  0  0  0  0  0  0
    1.6235  -10.8610    3.8050 H   0  0  0  0  0  0  0  0  0  0  0  0
    4.2793  -11.6407    3.5572 H   0  0  0  0  0  0  0  0  0  0  0  0
    3.1110  -11.3903    2.2887 H   0  0  0  0  0  0  0  0  0  0  0  0
    4.9529  -10.9126    1.1417 H   0  0  0  0  0  0  0  0  0  0  0  0
    3.1353   -9.3045    0.9028 H   0  0  0  0  0  0  0  0  0  0  0  0
    4.6307   -7.9634    0.1049 H   0  0  0  0  0  0  0  0  0  0  0  0
    5.5477   -5.7848   -0.7038 H   0  0  0  0  0  0  0  0  0  0  0  0
    5.5901   -4.1022   -0.1355 H   0  0  0  0  0  0  0  0  0  0  0  0
    4.2469   -4.6823   -1.1319 H   0  0  0  0  0  0  0  0  0  0  0  0
    2.5222   -4.4836    2.0878 H   0  0  0  0  0  0  0  0  0  0  0  0
    2.6321   -3.8814    0.4405 H   0  0  0  0  0  0  0  0  0  0  0  0
    3.8064   -3.3423    1.6628 H   0  0  0  0  0  0  0  0  0  0  0  0
    6.2547   -6.8878    1.0714 H   0  0  0  0  0  0  0  0  0  0  0  0
    6.7695   -8.3687    2.5526 H   0  0  0  0  0  0  0  0  0  0  0  0
    6.1512   -6.3226    4.2622 H   0  0  0  0  0  0  0  0  0  0  0  0
    6.3985   -9.0777    5.3969 H   0  0  0  0  0  0  0  0  0  0  0  0
    6.7334  -10.1875    4.0658 H   0  0  0  0  0  0  0  0  0  0  0  0
    5.3619  -10.4580    5.1378 H   0  0  0  0  0  0  0  0  0  0  0  0
    3.9901   -8.6629    5.6103 H   0  0  0  0  0  0  0  0  0  0  0  0
    1.4063   -9.0272    2.1421 H   0  0  0  0  0  0  0  0  0  0  0  0
  1  2  1  0
  1 29  1  0
  1 30  1  0
  1 31  1  0
  2 27  1  0
  2  3  1  0
  2 32  1  6
  3  4  2  0
  3 33  1  0
  4 28  1  0
  4  5  1  0
  5  6  1  0
  5 10  1  0
  5 34  1  1
  6  7  1  0
  6 35  1  0
  6 36  1  0
  7  9  1  0
  7  8  1  0
  7 37  1  0
  8  9  1  0
  8 38  1  0
  8 39  1  0
  9 40  1  0
  9 41  1  0
 10 27  1  0
 10 28  1  0
 10 11  1  6
 11 12  1  0
 11 42  1  0
 11 43  1  0
 12 13  1  0
 12 44  1  0
 12 45  1  0
 13 25  1  0
 13 14  1  6
 13 15  1  0
 14 46  1  0
 15 16  1  0
 15 28  1  0
 15 47  1  6
 16 22  1  0
 16 17  1  0
 16 48  1  6
 17 18  1  0
 18 19  1  0
 18 20  1  0
 18 21  1  0
 19 49  1  0
 19 50  1  0
 19 51  1  0
 20 52  1  0
 20 53  1  0
 20 54  1  0
 21 22  1  0
 22 23  1  0
 22 55  1  6
 23 24  1  0
 23 25  1  0
 23 56  1  6
 24 57  1  0
 25 26  1  1
 25 27  1  0
 26 58  1  0
 26 59  1  0
 26 60  1  0
 27 61  1  1
 28 62  1  6
M  END
>  <i_m_ct_stereo_status>  (115) 
1

>  <s_m_source_file>  (115) 
/var/tmp/pbs.5076255.sched01/tmpmmp70uc3/38qnywpnyg.sdf

>  <i_m_source_file_index>  (115) 
13

>  <i_lp_mmshare_version>  (115) 
48012

>  <i_f3d_flags>  (115) 
0

>  <s_epik_input>  (115) 
W0NIMl0xW0NIMl1bQ0hdMVtDSDJdW0NAQEhdMkMoPVtDSF1bQ0BIXTNbQ0gzXSlbQ0BIXTRbQ0BIXShbQ0BdKFtPSF0pKFtDSDJdW0NIMl01KVtDQF02KFtDSDNdKVtDQEBIXTNbQ0BAXTI0NSlbQ0BASF03W0NASF0oW0NASF02W09IXSlPQyhPNykoW0NIM10pW0NIM10=

>  <s_epik_cmdline>  (115) 
J2VwaWtfcHl0aG9uJywgJy1waHQnLCAnMi4wJywgJy1waCcsICc3LjAnLCAnLXRuJywgJzgnLCAnLW1hJywgJzIwMCcsICctaW1hZScsICc8aW5maWxlLm1hZT4nLCAnLW9tYWUnLCAnPG91dGZpbGUubWFlPic=

>  <r_lp_tautomer_probability>  (115) 
1

>  <r_epik_Ionization_Penalty>  (115) 
2.97332e-07

>  <r_epik_Ionization_Penalty_Charging>  (115) 
0

>  <r_epik_Ionization_Penalty_Neutral>  (115) 
2.97332e-07

>  <r_epik_State_Penalty>  (115) 
-0

>  <r_epik_Charging_Adjusted_Penalty>  (115) 
0

>  <i_epik_Tot_Q>  (115) 
0

>  <i_epik_Tot_abs_Q>  (115) 
0

>  <s_lp_Force_Field>  (115) 
OPLS3e

>  <r_lp_Energy>  (115) 
124.794

>  <b_lp_Chiralities_Consistent>  (115) 
1

>  <s_lp_Variant>  (115) 
35:0-1

>  <s_i_glide_gridfile>  (115) 
pfpi4k_grid

>  <i_i_glide_lignum>  (115) 
13

>  <i_i_glide_rotatable_bonds>  (115) 
4

>  <r_i_docking_score>  (115) 
-2.56326

>  <r_i_glide_ligand_efficiency>  (115) 
-0.0915448

>  <r_i_glide_ligand_efficiency_sa>  (115) 
-0.277984

>  <r_i_glide_ligand_efficiency_ln>  (115) 
-0.591675

>  <r_i_glide_gscore>  (115) 
-2.56326

>  <r_i_glide_lipo>  (115) 
-0.16622

>  <r_i_glide_hbond>  (115) 
-0.16

>  <r_i_glide_metal>  (115) 
-0

>  <r_i_glide_rewards>  (115) 
-0.821582

>  <r_i_glide_evdw>  (115) 
-19.0809

>  <r_i_glide_ecoul>  (115) 
-4.81314

>  <r_i_glide_erotb>  (115) 
0.260564

>  <r_i_glide_esite>  (115) 
0

>  <r_i_glide_emodel>  (115) 
-24.5024

>  <r_i_glide_energy>  (115) 
-23.8941

>  <r_i_glide_einternal>  (115) 
6.08657

>  <r_i_glide_intrahb_reward>  (115) 
-0

>  <i_i_glide_confnum>  (115) 
2

>  <i_i_glide_posenum>  (115) 
28

>  <r_i_glide_eff_state_penalty>  (115) 
0

>  <ligand_id>  (115) 
35

>  <original_smiles>  (115) 
CC1C=C2C(CC3CC3)C34CCC5(O)C(C6OC(C)(C)OC6C(O)C5(C)C13)C24

>  <smiles>  (115) 
[H]OC1([H])C2([H])OC(C([H])([H])[H])(C([H])([H])[H])OC2([H])C2([H])C3([H])C4=C([H])C([H])(C([H])([H])[H])C5([H])C3(C([H])([H])C([H])([H])C2(O[H])C15C([H])([H])[H])C4([H])C([H])([H])C1([H])C([H])([H])C1([H])[H]

$$$$
35:0:2
     RDKit          3D

 62 68  0  0  1  0  0  0  0  0999 V2000
    5.9365   -6.1718    1.3086 C   0  0  0  0  0  0  0  0  0  0  0  0
    4.5945   -5.7056    1.9061 C   0  0  2  0  0  0  0  0  0  0  0  0
    3.4976   -5.6617    0.8565 C   0  0  0  0  0  0  0  0  0  0  0  0
    2.9650   -4.4600    0.5752 C   0  0  0  0  0  0  0  0  0  0  0  0
    4.0480   -3.3994    0.2461 C   0  0  1  0  0  0  0  0  0  0  0  0
    3.7080   -2.2613   -0.7306 C   0  0  0  0  0  0  0  0  0  0  0  0
    3.6888   -2.6754   -2.1781 C   0  0  0  0  0  0  0  0  0  0  0  0
    3.0737   -1.7625   -3.2110 C   0  0  0  0  0  0  0  0  0  0  0  0
    2.3923   -3.0609   -2.8450 C   0  0  0  0  0  0  0  0  0  0  0  0
    3.9859   -3.1957    1.7613 C   0  0  2  0  0  0  0  0  0  0  0  0
    4.2201   -1.8326    2.3939 C   0  0  0  0  0  0  0  0  0  0  0  0
    3.4975   -1.8105    3.7547 C   0  0  0  0  0  0  0  0  0  0  0  0
    2.9711   -3.2276    4.1405 C   0  0  1  0  0  0  0  0  0  0  0  0
    2.3820   -3.0853    5.4199 O   0  0  0  0  0  0  0  0  0  0  0  0
    1.9052   -3.7112    3.0996 C   0  0  2  0  0  0  0  0  0  0  0  0
    1.2698   -5.0649    3.5131 C   0  0  1  0  0  0  0  0  0  0  0  0
    0.6157   -5.7558    2.4604 O   0  0  0  0  0  0  0  0  0  0  0  0
    0.8949   -7.0989    2.6714 C   0  0  0  0  0  0  0  0  0  0  0  0
   -0.2201   -7.7312    3.5449 C   0  0  0  0  0  0  0  0  0  0  0  0
    0.9529   -7.7969    1.3188 C   0  0  0  0  0  0  0  0  0  0  0  0
    2.1379   -7.1820    3.2951 O   0  0  0  0  0  0  0  0  0  0  0  0
    2.1693   -6.1035    4.2083 C   0  0  1  0  0  0  0  0  0  0  0  0
    3.5467   -5.6006    4.7257 C   0  0  1  0  0  0  0  0  0  0  0  0
    4.4713   -6.6567    4.9289 O   0  0  0  0  0  0  0  0  0  0  0  0
    4.1361   -4.2755    4.1224 C   0  0  2  0  0  0  0  0  0  0  0  0
    5.3144   -3.8399    5.0339 C   0  0  0  0  0  0  0  0  0  0  0  0
    4.6938   -4.3106    2.6372 C   0  0  1  0  0  0  0  0  0  0  0  0
    2.4799   -3.4584    1.6666 C   0  0  2  0  0  0  0  0  0  0  0  0
    5.8179   -7.1575    0.8561 H   0  0  0  0  0  0  0  0  0  0  0  0
    6.6849   -6.2614    2.1004 H   0  0  0  0  0  0  0  0  0  0  0  0
    6.3289   -5.4924    0.5484 H   0  0  0  0  0  0  0  0  0  0  0  0
    4.3108   -6.5219    2.5496 H   0  0  0  0  0  0  0  0  0  0  0  0
    3.6668   -6.3258    0.0200 H   0  0  0  0  0  0  0  0  0  0  0  0
    5.0325   -3.7918   -0.0143 H   0  0  0  0  0  0  0  0  0  0  0  0
    2.7826   -1.7468   -0.4897 H   0  0  0  0  0  0  0  0  0  0  0  0
    4.4817   -1.4956   -0.6414 H   0  0  0  0  0  0  0  0  0  0  0  0
    4.5867   -3.2070   -2.4934 H   0  0  0  0  0  0  0  0  0  0  0  0
    2.6354   -0.8321   -2.8580 H   0  0  0  0  0  0  0  0  0  0  0  0
    3.5447   -1.7127   -4.1877 H   0  0  0  0  0  0  0  0  0  0  0  0
    2.4242   -3.8673   -3.5681 H   0  0  0  0  0  0  0  0  0  0  0  0
    1.4965   -3.0272   -2.2207 H   0  0  0  0  0  0  0  0  0  0  0  0
    5.2777   -1.5994    2.4939 H   0  0  0  0  0  0  0  0  0  0  0  0
    3.7749   -1.0542    1.7718 H   0  0  0  0  0  0  0  0  0  0  0  0
    4.1507   -1.3921    4.5243 H   0  0  0  0  0  0  0  0  0  0  0  0
    2.6375   -1.1355    3.6932 H   0  0  0  0  0  0  0  0  0  0  0  0
    3.0542   -2.7731    6.0074 H   0  0  0  0  0  0  0  0  0  0  0  0
    1.0719   -3.0078    3.1857 H   0  0  0  0  0  0  0  0  0  0  0  0
    0.4905   -4.8285    4.2380 H   0  0  0  0  0  0  0  0  0  0  0  0
   -0.3614   -7.2081    4.4888 H   0  0  0  0  0  0  0  0  0  0  0  0
    0.0183   -8.7798    3.7502 H   0  0  0  0  0  0  0  0  0  0  0  0
   -1.1677   -7.6925    3.0006 H   0  0  0  0  0  0  0  0  0  0  0  0
    1.5728   -7.2371    0.6329 H   0  0  0  0  0  0  0  0  0  0  0  0
   -0.0472   -7.8510    0.8858 H   0  0  0  0  0  0  0  0  0  0  0  0
    1.3574   -8.8027    1.4371 H   0  0  0  0  0  0  0  0  0  0  0  0
    1.6365   -6.4659    5.0880 H   0  0  0  0  0  0  0  0  0  0  0  0
    3.3317   -5.3421    5.7600 H   0  0  0  0  0  0  0  0  0  0  0  0
    4.0173   -7.3757    5.3440 H   0  0  0  0  0  0  0  0  0  0  0  0
    6.1002   -4.5955    5.0365 H   0  0  0  0  0  0  0  0  0  0  0  0
    5.0045   -3.6879    6.0645 H   0  0  0  0  0  0  0  0  0  0  0  0
    5.7866   -2.9217    4.6913 H   0  0  0  0  0  0  0  0  0  0  0  0
    5.7580   -4.0613    2.6659 H   0  0  0  0  0  0  0  0  0  0  0  0
    1.9403   -2.6036    1.2514 H   0  0  0  0  0  0  0  0  0  0  0  0
  1  2  1  0
  1 29  1  0
  1 30  1  0
  1 31  1  0
  2 27  1  0
  2  3  1  0
  2 32  1  1
  3  4  2  0
  3 33  1  0
  4 28  1  0
  4  5  1  0
  5  6  1  0
  5 10  1  0
  5 34  1  1
  6  7  1  0
  6 35  1  0
  6 36  1  0
  7  9  1  0
  7  8  1  0
  7 37  1  0
  8  9  1  0
  8 38  1  0
  8 39  1  0
  9 40  1  0
  9 41  1  0
 10 27  1  0
 10 28  1  0
 10 11  1  6
 11 12  1  0
 11 42  1  0
 11 43  1  0
 12 13  1  0
 12 44  1  0
 12 45  1  0
 13 25  1  0
 13 14  1  1
 13 15  1  0
 14 46  1  0
 15 16  1  0
 15 28  1  0
 15 47  1  6
 16 22  1  0
 16 17  1  0
 16 48  1  1
 17 18  1  0
 18 19  1  0
 18 20  1  0
 18 21  1  0
 19 49  1  0
 19 50  1  0
 19 51  1  0
 20 52  1  0
 20 53  1  0
 20 54  1  0
 21 22  1  0
 22 23  1  0
 22 55  1  1
 23 24  1  0
 23 25  1  0
 23 56  1  1
 24 57  1  0
 25 26  1  1
 25 27  1  0
 26 58  1  0
 26 59  1  0
 26 60  1  0
 27 61  1  1
 28 62  1  6
M  END
>  <i_m_ct_stereo_status>  (116) 
1

>  <s_m_source_file>  (116) 
/var/tmp/pbs.5076255.sched01/tmpmmp70uc3/38qnywpnyg.sdf

>  <i_m_source_file_index>  (116) 
13

>  <i_lp_mmshare_version>  (116) 
48012

>  <i_f3d_flags>  (116) 
0

>  <s_epik_input>  (116) 
W0NIMl0xW0NIMl1bQ0hdMVtDSDJdW0NAQEhdMkMoPVtDSF1bQ0BIXTNbQ0gzXSlbQ0BIXTRbQ0BIXShbQ0BdKFtPSF0pKFtDSDJdW0NIMl01KVtDQF02KFtDSDNdKVtDQEBIXTNbQ0BAXTI0NSlbQ0BASF03W0NASF0oW0NASF02W09IXSlPQyhPNykoW0NIM10pW0NIM10=

>  <s_epik_cmdline>  (116) 
J2VwaWtfcHl0aG9uJywgJy1waHQnLCAnMi4wJywgJy1waCcsICc3LjAnLCAnLXRuJywgJzgnLCAnLW1hJywgJzIwMCcsICctaW1hZScsICc8aW5maWxlLm1hZT4nLCAnLW9tYWUnLCAnPG91dGZpbGUubWFlPic=

>  <r_lp_tautomer_probability>  (116) 
1

>  <r_epik_Ionization_Penalty>  (116) 
2.97332e-07

>  <r_epik_Ionization_Penalty_Charging>  (116) 
0

>  <r_epik_Ionization_Penalty_Neutral>  (116) 
2.97332e-07

>  <r_epik_State_Penalty>  (116) 
-0

>  <r_epik_Charging_Adjusted_Penalty>  (116) 
0

>  <i_epik_Tot_Q>  (116) 
0

>  <i_epik_Tot_abs_Q>  (116) 
0

>  <s_lp_Force_Field>  (116) 
OPLS3e

>  <r_lp_Energy>  (116) 
124.794

>  <b_lp_Chiralities_Consistent>  (116) 
1

>  <s_lp_Variant>  (116) 
35:0-1

>  <s_i_glide_gridfile>  (116) 
pfpi4k_grid

>  <i_i_glide_lignum>  (116) 
13

>  <i_i_glide_rotatable_bonds>  (116) 
4

>  <r_i_docking_score>  (116) 
-2.28861

>  <r_i_glide_ligand_efficiency>  (116) 
-0.0817362

>  <r_i_glide_ligand_efficiency_sa>  (116) 
-0.248199

>  <r_i_glide_ligand_efficiency_ln>  (116) 
-0.528279

>  <r_i_glide_gscore>  (116) 
-2.28861

>  <r_i_glide_lipo>  (116) 
-0.345193

>  <r_i_glide_hbond>  (116) 
-0.120461

>  <r_i_glide_metal>  (116) 
-0

>  <r_i_glide_rewards>  (116) 
-0.773698

>  <r_i_glide_evdw>  (116) 
-19.4462

>  <r_i_glide_ecoul>  (116) 
-1.9926

>  <r_i_glide_erotb>  (116) 
0.260564

>  <r_i_glide_esite>  (116) 
-0.0386291

>  <r_i_glide_emodel>  (116) 
-24.7719

>  <r_i_glide_energy>  (116) 
-21.4388

>  <r_i_glide_einternal>  (116) 
0.438554

>  <r_i_glide_intrahb_reward>  (116) 
-0

>  <i_i_glide_confnum>  (116) 
6

>  <i_i_glide_posenum>  (116) 
3

>  <r_i_glide_eff_state_penalty>  (116) 
0

>  <ligand_id>  (116) 
35

>  <original_smiles>  (116) 
CC1C=C2C(CC3CC3)C34CCC5(O)C(C6OC(C)(C)OC6C(O)C5(C)C13)C24

>  <smiles>  (116) 
[H]OC1([H])C2([H])OC(C([H])([H])[H])(C([H])([H])[H])OC2([H])C2([H])C3([H])C4=C([H])C([H])(C([H])([H])[H])C5([H])C3(C([H])([H])C([H])([H])C2(O[H])C15C([H])([H])[H])C4([H])C([H])([H])C1([H])C([H])([H])C1([H])[H]

$$$$
37:0:0
     RDKit          3D

 46 49  0  0  1  0  0  0  0  0999 V2000
    4.7674   -7.0862    1.5812 C   0  0  0  0  0  0  0  0  0  0  0  0
    5.0143   -5.5990    1.8869 C   0  0  0  0  0  0  0  0  0  0  0  0
    5.7350   -4.8136    0.7698 C   0  0  0  0  0  0  0  0  0  0  0  0
    7.1935   -5.2515    0.5169 C   0  0  0  0  0  0  0  0  0  0  0  0
    8.1413   -5.2215    1.7216 C   0  0  0  0  0  0  0  0  0  0  0  0
    5.5980   -3.3164    0.9969 C   0  0  0  0  0  0  0  0  0  0  0  0
    6.0097   -2.7411    2.1157 N   0  0  0  0  0  0  0  0  0  0  0  0
    5.8052   -1.3972    1.9355 N   0  0  0  0  0  0  0  0  0  0  0  0
    5.2712   -1.1860    0.7587 N   0  0  0  0  0  0  0  0  0  0  0  0
    5.0972   -2.4018    0.1493 N   0  0  0  0  0  0  0  0  0  0  0  0
    4.5156   -2.4648   -1.1760 C   0  0  1  0  0  0  0  0  0  0  0  0
    3.3102   -3.4511   -1.2116 C   0  0  0  0  0  0  0  0  0  0  0  0
    2.7572   -3.5560   -2.6603 C   0  0  2  0  0  0  0  0  0  0  0  0
    3.8540   -3.9528   -3.6595 C   0  0  0  0  0  0  0  0  0  0  0  0
    4.9943   -2.9902   -3.6182 C   0  0  1  0  0  0  0  0  0  0  0  0
    4.4015   -1.6354   -4.0862 C   0  0  0  0  0  0  0  0  0  0  0  0
    3.3422   -1.1784   -3.0893 C   0  0  1  0  0  0  0  0  0  0  0  0
    2.2119   -2.2102   -3.0903 C   0  0  0  0  0  0  0  0  0  0  0  0
    3.9754   -1.0727   -1.6624 C   0  0  0  0  0  0  0  0  0  0  0  0
    5.6008   -2.9029   -2.1925 C   0  0  0  0  0  0  0  0  0  0  0  0
    4.2430   -7.5590    2.4197 H   0  0  0  0  0  0  0  0  0  0  0  0
    5.7001   -7.6343    1.4340 H   0  0  0  0  0  0  0  0  0  0  0  0
    4.1453   -7.2208    0.6919 H   0  0  0  0  0  0  0  0  0  0  0  0
    4.0366   -5.1455    2.0460 H   0  0  0  0  0  0  0  0  0  0  0  0
    5.5283   -5.4985    2.8469 H   0  0  0  0  0  0  0  0  0  0  0  0
    5.2379   -5.0466   -0.1739 H   0  0  0  0  0  0  0  0  0  0  0  0
    7.1876   -6.2717    0.1326 H   0  0  0  0  0  0  0  0  0  0  0  0
    7.6175   -4.6407   -0.2802 H   0  0  0  0  0  0  0  0  0  0  0  0
    9.1276   -5.6243    1.4635 H   0  0  0  0  0  0  0  0  0  0  0  0
    7.7549   -5.8128    2.5580 H   0  0  0  0  0  0  0  0  0  0  0  0
    8.2880   -4.1980    2.0655 H   0  0  0  0  0  0  0  0  0  0  0  0
    3.5502   -4.4764   -0.9356 H   0  0  0  0  0  0  0  0  0  0  0  0
    2.5288   -3.0948   -0.5206 H   0  0  0  0  0  0  0  0  0  0  0  0
    1.9346   -4.2377   -2.6584 H   0  0  0  0  0  0  0  0  0  0  0  0
    4.3710   -4.9165   -3.4933 H   0  0  0  0  0  0  0  0  0  0  0  0
    3.4440   -3.9920   -4.6579 H   0  0  0  0  0  0  0  0  0  0  0  0
    5.7307   -3.4907   -4.2570 H   0  0  0  0  0  0  0  0  0  0  0  0
    5.0660   -0.8006   -4.0909 H   0  0  0  0  0  0  0  0  0  0  0  0
    3.9846   -1.6894   -5.0855 H   0  0  0  0  0  0  0  0  0  0  0  0
    2.9784   -0.1901   -3.3742 H   0  0  0  0  0  0  0  0  0  0  0  0
    1.7402   -2.2599   -4.0783 H   0  0  0  0  0  0  0  0  0  0  0  0
    1.4901   -1.9721   -2.3290 H   0  0  0  0  0  0  0  0  0  0  0  0
    3.2091   -0.7105   -0.9746 H   0  0  0  0  0  0  0  0  0  0  0  0
    4.7539   -0.3059   -1.6826 H   0  0  0  0  0  0  0  0  0  0  0  0
    6.4465   -2.2081   -2.1960 H   0  0  0  0  0  0  0  0  0  0  0  0
    6.0211   -3.8736   -1.9255 H   0  0  0  0  0  0  0  0  0  0  0  0
  1  2  1  0
  1 21  1  0
  1 22  1  0
  1 23  1  0
  2  3  1  0
  2 24  1  0
  2 25  1  0
  3  4  1  0
  3  6  1  0
  3 26  1  0
  4  5  1  0
  4 27  1  0
  4 28  1  0
  5 29  1  0
  5 30  1  0
  5 31  1  0
  6 10  1  0
  6  7  2  0
  7  8  1  0
  8  9  2  0
  9 10  1  0
 11 10  1  1
 11 19  1  0
 11 20  1  0
 11 12  1  0
 12 13  1  0
 12 32  1  0
 12 33  1  0
 13 18  1  0
 13 14  1  0
 13 34  1  1
 14 15  1  0
 14 35  1  0
 14 36  1  0
 15 16  1  0
 15 20  1  0
 15 37  1  6
 16 17  1  0
 16 38  1  0
 16 39  1  0
 17 18  1  0
 17 19  1  0
 17 40  1  6
 18 41  1  0
 18 42  1  0
 19 43  1  0
 19 44  1  0
 20 45  1  0
 20 46  1  0
M  END
>  <i_m_ct_stereo_status>  (117) 
1

>  <s_m_source_file>  (117) 
/var/tmp/pbs.5076255.sched01/tmpmmp70uc3/38qnywpnyg.sdf

>  <i_m_source_file_index>  (117) 
15

>  <i_lp_mmshare_version>  (117) 
48012

>  <i_f3d_flags>  (117) 
0

>  <s_epik_input>  (117) 
W0NIM11bQ0gyXVtDSF0oW0NIMl1bQ0gzXSljMW5ubm4xQzIzW0NIMl1bQ0BIXTRbQ0gyXVtDQEBIXShbQ0gyXTMpW0NIMl1bQ0BIXShbQ0gyXTQpW0NIMl0y

>  <s_epik_cmdline>  (117) 
J2VwaWtfcHl0aG9uJywgJy1waHQnLCAnMi4wJywgJy1waCcsICc3LjAnLCAnLXRuJywgJzgnLCAnLW1hJywgJzIwMCcsICctaW1hZScsICc8aW5maWxlLm1hZT4nLCAnLW9tYWUnLCAnPG91dGZpbGUubWFlPic=

>  <r_lp_tautomer_probability>  (117) 
1

>  <r_epik_Ionization_Penalty>  (117) 
2.42339e-07

>  <r_epik_Ionization_Penalty_Charging>  (117) 
0

>  <r_epik_Ionization_Penalty_Neutral>  (117) 
2.42339e-07

>  <r_epik_State_Penalty>  (117) 
-0

>  <r_epik_Charging_Adjusted_Penalty>  (117) 
0

>  <i_epik_Tot_Q>  (117) 
0

>  <i_epik_Tot_abs_Q>  (117) 
0

>  <s_lp_Force_Field>  (117) 
OPLS3e

>  <r_lp_Energy>  (117) 
13.7717

>  <b_lp_Chiralities_Consistent>  (117) 
1

>  <s_lp_Variant>  (117) 
37:0-1

>  <s_i_glide_gridfile>  (117) 
pfpi4k_grid

>  <i_i_glide_lignum>  (117) 
15

>  <i_i_glide_rotatable_bonds>  (117) 
4

>  <r_i_docking_score>  (117) 
-2.3462

>  <r_i_glide_ligand_efficiency>  (117) 
-0.11731

>  <r_i_glide_ligand_efficiency_sa>  (117) 
-0.318428

>  <r_i_glide_ligand_efficiency_ln>  (117) 
-0.587175

>  <r_i_glide_gscore>  (117) 
-2.3462

>  <r_i_glide_lipo>  (117) 
-0.74302

>  <r_i_glide_hbond>  (117) 
0

>  <r_i_glide_metal>  (117) 
-0

>  <r_i_glide_rewards>  (117) 
-1.63247

>  <r_i_glide_evdw>  (117) 
-8.1544

>  <r_i_glide_ecoul>  (117) 
-0.266173

>  <r_i_glide_erotb>  (117) 
0.47694

>  <r_i_glide_esite>  (117) 
0

>  <r_i_glide_emodel>  (117) 
-8.51167

>  <r_i_glide_energy>  (117) 
-8.42057

>  <r_i_glide_einternal>  (117) 
1.55014

>  <r_i_glide_intrahb_reward>  (117) 
-0

>  <i_i_glide_confnum>  (117) 
4

>  <i_i_glide_posenum>  (117) 
40

>  <r_i_glide_eff_state_penalty>  (117) 
0

>  <ligand_id>  (117) 
37

>  <original_smiles>  (117) 
CCC(CC)c1nnnn1C12CC3CC(CC(C3)C1)C2

>  <smiles>  (117) 
[H]C([H])([H])C([H])([H])C([H])(c1nnnn1C12C([H])([H])C3([H])C([H])([H])C([H])(C([H])([H])C([H])(C3([H])[H])C1([H])[H])C2([H])[H])C([H])([H])C([H])([H])[H]

$$$$
37:0:1
     RDKit          3D

 46 49  0  0  1  0  0  0  0  0999 V2000
    3.4569    0.4928    2.3625 C   0  0  0  0  0  0  0  0  0  0  0  0
    4.5953   -0.5125    2.1004 C   0  0  0  0  0  0  0  0  0  0  0  0
    4.2121   -1.7254    1.2062 C   0  0  0  0  0  0  0  0  0  0  0  0
    3.3341   -2.7659    1.9675 C   0  0  0  0  0  0  0  0  0  0  0  0
    2.7252   -3.9138    1.1418 C   0  0  0  0  0  0  0  0  0  0  0  0
    5.4690   -2.3546    0.6158 C   0  0  0  0  0  0  0  0  0  0  0  0
    6.5029   -2.7164    1.3387 N   0  0  0  0  0  0  0  0  0  0  0  0
    7.4088   -3.2463    0.4496 N   0  0  0  0  0  0  0  0  0  0  0  0
    6.9373   -3.2079   -0.7586 N   0  0  0  0  0  0  0  0  0  0  0  0
    5.6935   -2.6664   -0.6837 N   0  0  0  0  0  0  0  0  0  0  0  0
    4.8932   -2.5200   -1.8959 C   0  0  1  0  0  0  0  0  0  0  0  0
    3.5511   -3.2275   -1.7395 C   0  0  0  0  0  0  0  0  0  0  0  0
    2.6348   -3.0923   -2.9291 C   0  0  2  0  0  0  0  0  0  0  0  0
    3.2866   -3.6814   -4.1336 C   0  0  0  0  0  0  0  0  0  0  0  0
    4.6179   -3.0453   -4.3171 C   0  0  1  0  0  0  0  0  0  0  0  0
    4.3992   -1.5506   -4.6247 C   0  0  0  0  0  0  0  0  0  0  0  0
    3.7479   -0.8853   -3.4441 C   0  0  1  0  0  0  0  0  0  0  0  0
    2.4266   -1.6221   -3.2506 C   0  0  0  0  0  0  0  0  0  0  0  0
    4.6535   -1.0211   -2.2075 C   0  0  0  0  0  0  0  0  0  0  0  0
    5.5575   -3.1934   -3.1140 C   0  0  0  0  0  0  0  0  0  0  0  0
    3.8112    1.3195    2.9791 H   0  0  0  0  0  0  0  0  0  0  0  0
    2.6263    0.0357    2.8966 H   0  0  0  0  0  0  0  0  0  0  0  0
    3.0717    0.9258    1.4379 H   0  0  0  0  0  0  0  0  0  0  0  0
    5.4012    0.0427    1.6169 H   0  0  0  0  0  0  0  0  0  0  0  0
    5.0025   -0.8690    3.0470 H   0  0  0  0  0  0  0  0  0  0  0  0
    3.6069   -1.2924    0.4239 H   0  0  0  0  0  0  0  0  0  0  0  0
    3.9338   -3.2139    2.7583 H   0  0  0  0  0  0  0  0  0  0  0  0
    2.5027   -2.2454    2.4376 H   0  0  0  0  0  0  0  0  0  0  0  0
    2.2304   -4.6738    1.7470 H   0  0  0  0  0  0  0  0  0  0  0  0
    3.5134   -4.4312    0.6035 H   0  0  0  0  0  0  0  0  0  0  0  0
    1.9675   -3.5459    0.4449 H   0  0  0  0  0  0  0  0  0  0  0  0
    3.6868   -4.2793   -1.5090 H   0  0  0  0  0  0  0  0  0  0  0  0
    3.0018   -2.6814   -0.9916 H   0  0  0  0  0  0  0  0  0  0  0  0
    1.6858   -3.5975   -2.7480 H   0  0  0  0  0  0  0  0  0  0  0  0
    3.5170   -4.7308   -4.0774 H   0  0  0  0  0  0  0  0  0  0  0  0
    2.6435   -3.4187   -4.9714 H   0  0  0  0  0  0  0  0  0  0  0  0
    5.0048   -3.6941   -5.1114 H   0  0  0  0  0  0  0  0  0  0  0  0
    5.3447   -1.0355   -4.7708 H   0  0  0  0  0  0  0  0  0  0  0  0
    3.7733   -1.3704   -5.4906 H   0  0  0  0  0  0  0  0  0  0  0  0
    3.5511    0.1651   -3.6640 H   0  0  0  0  0  0  0  0  0  0  0  0
    1.7882   -1.5244   -4.1400 H   0  0  0  0  0  0  0  0  0  0  0  0
    1.9797   -1.1953   -2.3824 H   0  0  0  0  0  0  0  0  0  0  0  0
    4.1451   -0.5111   -1.4024 H   0  0  0  0  0  0  0  0  0  0  0  0
    5.5971   -0.4968   -2.3481 H   0  0  0  0  0  0  0  0  0  0  0  0
    6.5287   -2.7409   -3.3313 H   0  0  0  0  0  0  0  0  0  0  0  0
    5.7432   -4.2562   -2.9362 H   0  0  0  0  0  0  0  0  0  0  0  0
  1  2  1  0
  1 21  1  0
  1 22  1  0
  1 23  1  0
  2  3  1  0
  2 24  1  0
  2 25  1  0
  3  4  1  0
  3  6  1  0
  3 26  1  0
  4  5  1  0
  4 27  1  0
  4 28  1  0
  5 29  1  0
  5 30  1  0
  5 31  1  0
  6 10  1  0
  6  7  2  0
  7  8  1  0
  8  9  2  0
  9 10  1  0
 11 10  1  1
 11 19  1  0
 11 20  1  0
 11 12  1  0
 12 13  1  0
 12 32  1  0
 12 33  1  0
 13 18  1  0
 13 14  1  0
 13 34  1  1
 14 15  1  0
 14 35  1  0
 14 36  1  0
 15 16  1  0
 15 20  1  0
 15 37  1  6
 16 17  1  0
 16 38  1  0
 16 39  1  0
 17 18  1  0
 17 19  1  0
 17 40  1  6
 18 41  1  0
 18 42  1  0
 19 43  1  0
 19 44  1  0
 20 45  1  0
 20 46  1  0
M  END
>  <i_m_ct_stereo_status>  (118) 
1

>  <s_m_source_file>  (118) 
/var/tmp/pbs.5076255.sched01/tmpmmp70uc3/38qnywpnyg.sdf

>  <i_m_source_file_index>  (118) 
15

>  <i_lp_mmshare_version>  (118) 
48012

>  <i_f3d_flags>  (118) 
0

>  <s_epik_input>  (118) 
W0NIM11bQ0gyXVtDSF0oW0NIMl1bQ0gzXSljMW5ubm4xQzIzW0NIMl1bQ0BIXTRbQ0gyXVtDQEBIXShbQ0gyXTMpW0NIMl1bQ0BIXShbQ0gyXTQpW0NIMl0y

>  <s_epik_cmdline>  (118) 
J2VwaWtfcHl0aG9uJywgJy1waHQnLCAnMi4wJywgJy1waCcsICc3LjAnLCAnLXRuJywgJzgnLCAnLW1hJywgJzIwMCcsICctaW1hZScsICc8aW5maWxlLm1hZT4nLCAnLW9tYWUnLCAnPG91dGZpbGUubWFlPic=

>  <r_lp_tautomer_probability>  (118) 
1

>  <r_epik_Ionization_Penalty>  (118) 
2.42339e-07

>  <r_epik_Ionization_Penalty_Charging>  (118) 
0

>  <r_epik_Ionization_Penalty_Neutral>  (118) 
2.42339e-07

>  <r_epik_State_Penalty>  (118) 
-0

>  <r_epik_Charging_Adjusted_Penalty>  (118) 
0

>  <i_epik_Tot_Q>  (118) 
0

>  <i_epik_Tot_abs_Q>  (118) 
0

>  <s_lp_Force_Field>  (118) 
OPLS3e

>  <r_lp_Energy>  (118) 
13.7717

>  <b_lp_Chiralities_Consistent>  (118) 
1

>  <s_lp_Variant>  (118) 
37:0-1

>  <s_i_glide_gridfile>  (118) 
pfpi4k_grid

>  <i_i_glide_lignum>  (118) 
15

>  <i_i_glide_rotatable_bonds>  (118) 
4

>  <r_i_docking_score>  (118) 
-2.21295

>  <r_i_glide_ligand_efficiency>  (118) 
-0.110648

>  <r_i_glide_ligand_efficiency_sa>  (118) 
-0.300344

>  <r_i_glide_ligand_efficiency_ln>  (118) 
-0.55383

>  <r_i_glide_gscore>  (118) 
-2.21295

>  <r_i_glide_lipo>  (118) 
-0.597443

>  <r_i_glide_hbond>  (118) 
0

>  <r_i_glide_metal>  (118) 
-0

>  <r_i_glide_rewards>  (118) 
-1.59836

>  <r_i_glide_evdw>  (118) 
-4.37119

>  <r_i_glide_ecoul>  (118) 
-1.79269

>  <r_i_glide_erotb>  (118) 
0.47694

>  <r_i_glide_esite>  (118) 
-0.00662421

>  <r_i_glide_emodel>  (118) 
-4.5209

>  <r_i_glide_energy>  (118) 
-6.16388

>  <r_i_glide_einternal>  (118) 
1.46639

>  <r_i_glide_intrahb_reward>  (118) 
-0

>  <i_i_glide_confnum>  (118) 
4

>  <i_i_glide_posenum>  (118) 
1

>  <r_i_glide_eff_state_penalty>  (118) 
0

>  <ligand_id>  (118) 
37

>  <original_smiles>  (118) 
CCC(CC)c1nnnn1C12CC3CC(CC(C3)C1)C2

>  <smiles>  (118) 
[H]C([H])([H])C([H])([H])C([H])(c1nnnn1C12C([H])([H])C3([H])C([H])([H])C([H])(C([H])([H])C([H])(C3([H])[H])C1([H])[H])C2([H])[H])C([H])([H])C([H])([H])[H]

$$$$
38:0:0
     RDKit          3D

 45 48  0  0  1  0  0  0  0  0999 V2000
    3.1633   -3.1492   -0.9577 C   0  0  0  0  0  0  0  0  0  0  0  0
    2.8318   -3.0967    0.4234 O   0  0  0  0  0  0  0  0  0  0  0  0
    2.9594   -4.3089    1.0867 C   0  0  2  0  0  0  0  0  0  0  0  0
    2.0276   -5.2302    0.5933 O   0  0  0  0  0  0  0  0  0  0  0  0
    2.1491   -6.5175    1.1351 C   0  0  1  0  0  0  0  0  0  0  0  0
    3.3880   -7.1316    0.8797 O   0  0  0  0  0  0  0  0  0  0  0  0
    4.0301   -7.7364    1.9696 C   0  0  1  0  0  0  0  0  0  0  0  0
    4.9882   -8.7671    1.3421 C   0  0  0  0  0  0  0  0  0  0  0  0
    4.8826   -6.6712    2.7304 C   0  0  0  0  0  0  0  0  0  0  0  0
    4.0454   -5.9180    3.7904 C   0  0  0  0  0  0  0  0  0  0  0  0
    2.6692   -5.4106    3.3288 C   0  0  1  0  0  0  0  0  0  0  0  0
    2.5962   -4.0640    2.5734 C   0  0  1  0  0  0  0  0  0  0  0  0
    3.4471   -2.9249    3.1821 C   0  0  0  0  0  0  0  0  0  0  0  0
    1.7851   -6.4845    2.6574 C   0  0  1  0  0  0  0  0  0  0  0  0
    0.4159   -6.1363    2.9016 O   0  0  0  0  0  0  0  0  0  0  0  0
   -0.4801   -7.1384    2.1667 O   0  0  0  0  0  0  0  0  0  0  0  0
   -0.4946   -8.3017    2.9845 C   0  0  1  0  0  0  0  0  0  0  0  0
   -1.5683   -9.2385    2.4146 C   0  0  0  0  0  0  0  0  0  0  0  0
    0.9037   -8.8995    2.8408 C   0  0  0  0  0  0  0  0  0  0  0  0
    2.0005   -7.9031    3.2443 C   0  0  1  0  0  0  0  0  0  0  0  0
    3.2374   -8.4600    2.8500 O   0  0  0  0  0  0  0  0  0  0  0  0
    3.0158   -2.1613   -1.3976 H   0  0  0  0  0  0  0  0  0  0  0  0
    2.5201   -3.8438   -1.4983 H   0  0  0  0  0  0  0  0  0  0  0  0
    4.2032   -3.4378   -1.1179 H   0  0  0  0  0  0  0  0  0  0  0  0
    3.9980   -4.6282    0.9776 H   0  0  0  0  0  0  0  0  0  0  0  0
    1.3930   -7.1251    0.6435 H   0  0  0  0  0  0  0  0  0  0  0  0
    4.4163   -9.5219    0.7980 H   0  0  0  0  0  0  0  0  0  0  0  0
    5.5687   -9.2761    2.1078 H   0  0  0  0  0  0  0  0  0  0  0  0
    5.6661   -8.2803    0.6480 H   0  0  0  0  0  0  0  0  0  0  0  0
    5.6942   -7.1772    3.2487 H   0  0  0  0  0  0  0  0  0  0  0  0
    5.3410   -6.0028    2.0074 H   0  0  0  0  0  0  0  0  0  0  0  0
    3.9067   -6.5655    4.6548 H   0  0  0  0  0  0  0  0  0  0  0  0
    4.6405   -5.0896    4.1746 H   0  0  0  0  0  0  0  0  0  0  0  0
    2.1624   -5.1833    4.2698 H   0  0  0  0  0  0  0  0  0  0  0  0
    1.5635   -3.7212    2.5716 H   0  0  0  0  0  0  0  0  0  0  0  0
    4.5210   -3.0923    3.0942 H   0  0  0  0  0  0  0  0  0  0  0  0
    3.2114   -2.8036    4.2407 H   0  0  0  0  0  0  0  0  0  0  0  0
    3.2258   -1.9668    2.7050 H   0  0  0  0  0  0  0  0  0  0  0  0
   -0.7176   -8.0716    4.0294 H   0  0  0  0  0  0  0  0  0  0  0  0
   -1.5208  -10.2215    2.8820 H   0  0  0  0  0  0  0  0  0  0  0  0
   -1.4273   -9.3885    1.3456 H   0  0  0  0  0  0  0  0  0  0  0  0
   -2.5736   -8.8450    2.5596 H   0  0  0  0  0  0  0  0  0  0  0  0
    1.0013   -9.8156    3.4308 H   0  0  0  0  0  0  0  0  0  0  0  0
    1.0651   -9.2076    1.8054 H   0  0  0  0  0  0  0  0  0  0  0  0
    1.9796   -7.8338    4.3331 H   0  0  0  0  0  0  0  0  0  0  0  0
  1  2  1  0
  1 22  1  0
  1 23  1  0
  1 24  1  0
  2  3  1  0
  3 12  1  0
  3  4  1  0
  3 25  1  1
  4  5  1  0
  5 14  1  0
  5  6  1  0
  5 26  1  6
  6  7  1  0
  7 21  1  0
  7  8  1  6
  7  9  1  0
  8 27  1  0
  8 28  1  0
  8 29  1  0
  9 10  1  0
  9 30  1  0
  9 31  1  0
 10 11  1  0
 10 32  1  0
 10 33  1  0
 11 12  1  0
 11 14  1  0
 11 34  1  1
 12 13  1  0
 12 35  1  6
 13 36  1  0
 13 37  1  0
 13 38  1  0
 14 20  1  0
 14 15  1  6
 15 16  1  0
 16 17  1  0
 17 18  1  0
 17 19  1  0
 17 39  1  1
 18 40  1  0
 18 41  1  0
 18 42  1  0
 19 20  1  0
 19 43  1  0
 19 44  1  0
 20 21  1  0
 20 45  1  1
M  END
>  <i_m_ct_stereo_status>  (119) 
1

>  <s_m_source_file>  (119) 
/var/tmp/pbs.5076255.sched01/tmpmmp70uc3/38qnywpnyg.sdf

>  <i_m_source_file_index>  (119) 
16

>  <i_lp_mmshare_version>  (119) 
48012

>  <i_f3d_flags>  (119) 
0

>  <s_epik_input>  (119) 
W0NAXTEyM1tDQEhdNE9bQ0BASF0oT1tDSDNdKVtDQEhdKFtDSDNdKVtDQEBIXTFbQ0gyXVtDSDJdW0NAQF0oTzQpKFtDSDNdKU9bQ0BASF0zW0NIMl1bQ0BASF0oT08yKVtDSDNd

>  <s_epik_cmdline>  (119) 
J2VwaWtfcHl0aG9uJywgJy1waHQnLCAnMi4wJywgJy1waCcsICc3LjAnLCAnLXRuJywgJzgnLCAnLW1hJywgJzIwMCcsICctaW1hZScsICc8aW5maWxlLm1hZT4nLCAnLW9tYWUnLCAnPG91dGZpbGUubWFlPic=

>  <r_lp_tautomer_probability>  (119) 
1

>  <r_epik_Ionization_Penalty>  (119) 
6.94759e-13

>  <r_epik_Ionization_Penalty_Charging>  (119) 
0

>  <r_epik_Ionization_Penalty_Neutral>  (119) 
6.94759e-13

>  <r_epik_State_Penalty>  (119) 
-0

>  <r_epik_Charging_Adjusted_Penalty>  (119) 
0

>  <i_epik_Tot_Q>  (119) 
0

>  <i_epik_Tot_abs_Q>  (119) 
0

>  <s_epik_Chemistry_Notes>  (119) 
This compound contains an acetal/aminal-like group ( X-CH(R)-Y where X, Y are N, S, or O) that may be acid/base labile, releasing an aldehyde.

>  <s_lp_Force_Field>  (119) 
OPLS3e

>  <r_lp_Energy>  (119) 
28.854

>  <b_lp_Chiralities_Consistent>  (119) 
1

>  <s_lp_Variant>  (119) 
38:0-1

>  <s_i_glide_gridfile>  (119) 
pfpi4k_grid

>  <i_i_glide_lignum>  (119) 
16

>  <i_i_glide_rotatable_bonds>  (119) 
1

>  <r_i_docking_score>  (119) 
-3.05718

>  <r_i_glide_ligand_efficiency>  (119) 
-0.14558

>  <r_i_glide_ligand_efficiency_sa>  (119) 
-0.401645

>  <r_i_glide_ligand_efficiency_ln>  (119) 
-0.755882

>  <r_i_glide_gscore>  (119) 
-3.05718

>  <r_i_glide_lipo>  (119) 
-0.30767

>  <r_i_glide_hbond>  (119) 
-0.226761

>  <r_i_glide_metal>  (119) 
-0

>  <r_i_glide_rewards>  (119) 
-1.37278

>  <r_i_glide_evdw>  (119) 
-16.2169

>  <r_i_glide_ecoul>  (119) 
-2.04518

>  <r_i_glide_erotb>  (119) 
0

>  <r_i_glide_esite>  (119) 
-0.0323523

>  <r_i_glide_emodel>  (119) 
-22.0508

>  <r_i_glide_energy>  (119) 
-18.262

>  <r_i_glide_einternal>  (119) 
0.0968203

>  <r_i_glide_intrahb_reward>  (119) 
-0

>  <i_i_glide_confnum>  (119) 
1

>  <i_i_glide_posenum>  (119) 
11

>  <r_i_glide_eff_state_penalty>  (119) 
0

>  <ligand_id>  (119) 
38

>  <original_smiles>  (119) 
COC1OC2OC3(C)CCC(C1C)C21OOC(C)CC1O3

>  <smiles>  (119) 
[H]C([H])([H])OC1([H])OC2([H])OC3(C([H])([H])[H])OC4([H])C([H])([H])C([H])(C([H])([H])[H])OOC24C([H])(C([H])([H])C3([H])[H])C1([H])C([H])([H])[H]

$$$$
38:0:1
     RDKit          3D

 45 48  0  0  1  0  0  0  0  0999 V2000
   -0.5823   -5.8149    6.3930 C   0  0  0  0  0  0  0  0  0  0  0  0
   -0.9050   -6.2596    5.0843 O   0  0  0  0  0  0  0  0  0  0  0  0
    0.0788   -7.0472    4.4871 C   0  0  2  0  0  0  0  0  0  0  0  0
    1.2425   -6.2929    4.3180 O   0  0  0  0  0  0  0  0  0  0  0  0
    2.3352   -7.0006    3.7848 C   0  0  1  0  0  0  0  0  0  0  0  0
    2.7930   -8.0343    4.6242 O   0  0  0  0  0  0  0  0  0  0  0  0
    2.9869   -9.3029    4.0378 C   0  0  1  0  0  0  0  0  0  0  0  0
    3.9429  -10.0342    4.9880 C   0  0  0  0  0  0  0  0  0  0  0  0
    1.6439  -10.0738    3.9572 C   0  0  0  0  0  0  0  0  0  0  0  0
    0.8203   -9.7445    2.6991 C   0  0  0  0  0  0  0  0  0  0  0  0
    0.6857   -8.2435    2.3567 C   0  0  1  0  0  0  0  0  0  0  0  0
   -0.4212   -7.4451    3.0882 C   0  0  1  0  0  0  0  0  0  0  0  0
   -1.7982   -8.1352    3.1402 C   0  0  0  0  0  0  0  0  0  0  0  0
    2.0253   -7.4838    2.3380 C   0  0  1  0  0  0  0  0  0  0  0  0
    1.8846   -6.3806    1.4168 O   0  0  0  0  0  0  0  0  0  0  0  0
    3.1672   -5.5631    1.4353 O   0  0  0  0  0  0  0  0  0  0  0  0
    4.1222   -6.2690    0.6639 C   0  0  1  0  0  0  0  0  0  0  0  0
    5.3346   -5.3585    0.4615 C   0  0  0  0  0  0  0  0  0  0  0  0
    4.4682   -7.5126    1.4870 C   0  0  0  0  0  0  0  0  0  0  0  0
    3.2221   -8.3417    1.8364 C   0  0  1  0  0  0  0  0  0  0  0  0
    3.6362   -9.2992    2.7958 O   0  0  0  0  0  0  0  0  0  0  0  0
   -1.4031   -5.2129    6.7836 H   0  0  0  0  0  0  0  0  0  0  0  0
    0.3079   -5.1884    6.3911 H   0  0  0  0  0  0  0  0  0  0  0  0
   -0.4147   -6.6433    7.0831 H   0  0  0  0  0  0  0  0  0  0  0  0
    0.2350   -7.9225    5.1293 H   0  0  0  0  0  0  0  0  0  0  0  0
    3.1524   -6.2854    3.7483 H   0  0  0  0  0  0  0  0  0  0  0  0
    4.8893   -9.5025    5.0614 H   0  0  0  0  0  0  0  0  0  0  0  0
    4.1480  -11.0419    4.6226 H   0  0  0  0  0  0  0  0  0  0  0  0
    3.5036  -10.1086    5.9853 H   0  0  0  0  0  0  0  0  0  0  0  0
    1.8652  -11.1477    3.9345 H   0  0  0  0  0  0  0  0  0  0  0  0
    1.0797   -9.9141    4.8804 H   0  0  0  0  0  0  0  0  0  0  0  0
    1.2821  -10.2463    1.8465 H   0  0  0  0  0  0  0  0  0  0  0  0
   -0.1567  -10.2081    2.7817 H   0  0  0  0  0  0  0  0  0  0  0  0
    0.3502   -8.2535    1.3218 H   0  0  0  0  0  0  0  0  0  0  0  0
   -0.5499   -6.5106    2.5452 H   0  0  0  0  0  0  0  0  0  0  0  0
   -1.8059   -9.0159    3.7875 H   0  0  0  0  0  0  0  0  0  0  0  0
   -2.1077   -8.4498    2.1446 H   0  0  0  0  0  0  0  0  0  0  0  0
   -2.5694   -7.4599    3.5154 H   0  0  0  0  0  0  0  0  0  0  0  0
    3.7108   -6.5564   -0.3043 H   0  0  0  0  0  0  0  0  0  0  0  0
    6.1668   -5.8856   -0.0068 H   0  0  0  0  0  0  0  0  0  0  0  0
    5.7006   -4.9633    1.4134 H   0  0  0  0  0  0  0  0  0  0  0  0
    5.0920   -4.5041   -0.1744 H   0  0  0  0  0  0  0  0  0  0  0  0
    5.1878   -8.1381    0.9603 H   0  0  0  0  0  0  0  0  0  0  0  0
    4.9597   -7.1942    2.4083 H   0  0  0  0  0  0  0  0  0  0  0  0
    2.9144   -8.8683    0.9326 H   0  0  0  0  0  0  0  0  0  0  0  0
  1  2  1  0
  1 22  1  0
  1 23  1  0
  1 24  1  0
  2  3  1  0
  3 12  1  0
  3  4  1  0
  3 25  1  1
  4  5  1  0
  5 14  1  0
  5  6  1  0
  5 26  1  6
  6  7  1  0
  7 21  1  0
  7  8  1  1
  7  9  1  0
  8 27  1  0
  8 28  1  0
  8 29  1  0
  9 10  1  0
  9 30  1  0
  9 31  1  0
 10 11  1  0
 10 32  1  0
 10 33  1  0
 11 12  1  0
 11 14  1  0
 11 34  1  6
 12 13  1  0
 12 35  1  6
 13 36  1  0
 13 37  1  0
 13 38  1  0
 14 20  1  0
 14 15  1  6
 15 16  1  0
 16 17  1  0
 17 18  1  0
 17 19  1  0
 17 39  1  6
 18 40  1  0
 18 41  1  0
 18 42  1  0
 19 20  1  0
 19 43  1  0
 19 44  1  0
 20 21  1  0
 20 45  1  6
M  END
>  <i_m_ct_stereo_status>  (120) 
1

>  <s_m_source_file>  (120) 
/var/tmp/pbs.5076255.sched01/tmpmmp70uc3/38qnywpnyg.sdf

>  <i_m_source_file_index>  (120) 
16

>  <i_lp_mmshare_version>  (120) 
48012

>  <i_f3d_flags>  (120) 
0

>  <s_epik_input>  (120) 
W0NAXTEyM1tDQEhdNE9bQ0BASF0oT1tDSDNdKVtDQEhdKFtDSDNdKVtDQEBIXTFbQ0gyXVtDSDJdW0NAQF0oTzQpKFtDSDNdKU9bQ0BASF0zW0NIMl1bQ0BASF0oT08yKVtDSDNd

>  <s_epik_cmdline>  (120) 
J2VwaWtfcHl0aG9uJywgJy1waHQnLCAnMi4wJywgJy1waCcsICc3LjAnLCAnLXRuJywgJzgnLCAnLW1hJywgJzIwMCcsICctaW1hZScsICc8aW5maWxlLm1hZT4nLCAnLW9tYWUnLCAnPG91dGZpbGUubWFlPic=

>  <r_lp_tautomer_probability>  (120) 
1

>  <r_epik_Ionization_Penalty>  (120) 
6.94759e-13

>  <r_epik_Ionization_Penalty_Charging>  (120) 
0

>  <r_epik_Ionization_Penalty_Neutral>  (120) 
6.94759e-13

>  <r_epik_State_Penalty>  (120) 
-0

>  <r_epik_Charging_Adjusted_Penalty>  (120) 
0

>  <i_epik_Tot_Q>  (120) 
0

>  <i_epik_Tot_abs_Q>  (120) 
0

>  <s_epik_Chemistry_Notes>  (120) 
This compound contains an acetal/aminal-like group ( X-CH(R)-Y where X, Y are N, S, or O) that may be acid/base labile, releasing an aldehyde.

>  <s_lp_Force_Field>  (120) 
OPLS3e

>  <r_lp_Energy>  (120) 
28.854

>  <b_lp_Chiralities_Consistent>  (120) 
1

>  <s_lp_Variant>  (120) 
38:0-1

>  <s_i_glide_gridfile>  (120) 
pfpi4k_grid

>  <i_i_glide_lignum>  (120) 
16

>  <i_i_glide_rotatable_bonds>  (120) 
1

>  <r_i_docking_score>  (120) 
-2.75769

>  <r_i_glide_ligand_efficiency>  (120) 
-0.131319

>  <r_i_glide_ligand_efficiency_sa>  (120) 
-0.362298

>  <r_i_glide_ligand_efficiency_ln>  (120) 
-0.681833

>  <r_i_glide_gscore>  (120) 
-2.75769

>  <r_i_glide_lipo>  (120) 
-0.390828

>  <r_i_glide_hbond>  (120) 
0

>  <r_i_glide_metal>  (120) 
-0

>  <r_i_glide_rewards>  (120) 
-1.36127

>  <r_i_glide_evdw>  (120) 
-17.8153

>  <r_i_glide_ecoul>  (120) 
-0.539063

>  <r_i_glide_erotb>  (120) 
0

>  <r_i_glide_esite>  (120) 
-0.0339702

>  <r_i_glide_emodel>  (120) 
-21.7442

>  <r_i_glide_energy>  (120) 
-18.3543

>  <r_i_glide_einternal>  (120) 
0.178966

>  <r_i_glide_intrahb_reward>  (120) 
-0

>  <i_i_glide_confnum>  (120) 
2

>  <i_i_glide_posenum>  (120) 
12

>  <r_i_glide_eff_state_penalty>  (120) 
0

>  <ligand_id>  (120) 
38

>  <original_smiles>  (120) 
COC1OC2OC3(C)CCC(C1C)C21OOC(C)CC1O3

>  <smiles>  (120) 
[H]C([H])([H])OC1([H])OC2([H])OC3(C([H])([H])[H])OC4([H])C([H])([H])C([H])(C([H])([H])[H])OOC24C([H])(C([H])([H])C3([H])[H])C1([H])C([H])([H])[H]

$$$$
38:0:2
     RDKit          3D

 45 48  0  0  1  0  0  0  0  0999 V2000
   -0.7561   -5.8801    5.7800 C   0  0  0  0  0  0  0  0  0  0  0  0
   -0.8731   -6.4112    4.4695 O   0  0  0  0  0  0  0  0  0  0  0  0
    0.3078   -6.9539    3.9658 C   0  0  2  0  0  0  0  0  0  0  0  0
    1.2558   -5.9431    3.7960 O   0  0  0  0  0  0  0  0  0  0  0  0
    2.5195   -6.3855    3.3559 C   0  0  1  0  0  0  0  0  0  0  0  0
    3.1722   -7.2189    4.2837 O   0  0  0  0  0  0  0  0  0  0  0  0
    3.7044   -8.4331    3.8020 C   0  0  1  0  0  0  0  0  0  0  0  0
    4.7544   -8.8455    4.8419 C   0  0  0  0  0  0  0  0  0  0  0  0
    2.5970   -9.5167    3.7206 C   0  0  0  0  0  0  0  0  0  0  0  0
    1.7913   -9.4793    2.4088 C   0  0  0  0  0  0  0  0  0  0  0  0
    1.3108   -8.0794    1.9568 C   0  0  1  0  0  0  0  0  0  0  0  0
   -0.0015   -7.5406    2.5784 C   0  0  1  0  0  0  0  0  0  0  0  0
   -1.1692   -8.5456    2.6269 C   0  0  0  0  0  0  0  0  0  0  0  0
    2.4228   -7.0146    1.9383 C   0  0  1  0  0  0  0  0  0  0  0  0
    2.0687   -6.0389    0.9368 O   0  0  0  0  0  0  0  0  0  0  0  0
    3.1137   -4.9375    0.9345 O   0  0  0  0  0  0  0  0  0  0  0  0
    4.2536   -5.4316    0.2509 C   0  0  1  0  0  0  0  0  0  0  0  0
    5.2172   -4.2621    0.0407 C   0  0  0  0  0  0  0  0  0  0  0  0
    4.8436   -6.4868    1.1902 C   0  0  0  0  0  0  0  0  0  0  0  0
    3.8226   -7.5748    1.5506 C   0  0  1  0  0  0  0  0  0  0  0  0
    4.4032   -8.3446    2.5921 O   0  0  0  0  0  0  0  0  0  0  0  0
   -1.7156   -5.4671    6.0931 H   0  0  0  0  0  0  0  0  0  0  0  0
   -0.0236   -5.0749    5.8258 H   0  0  0  0  0  0  0  0  0  0  0  0
   -0.4743   -6.6475    6.5017 H   0  0  0  0  0  0  0  0  0  0  0  0
    0.6400   -7.7258    4.6688 H   0  0  0  0  0  0  0  0  0  0  0  0
    3.1367   -5.4914    3.3022 H   0  0  0  0  0  0  0  0  0  0  0  0
    5.5337   -8.0925    4.9127 H   0  0  0  0  0  0  0  0  0  0  0  0
    5.2197   -9.7911    4.5591 H   0  0  0  0  0  0  0  0  0  0  0  0
    4.2886   -8.9633    5.8212 H   0  0  0  0  0  0  0  0  0  0  0  0
    3.0737  -10.5011    3.7847 H   0  0  0  0  0  0  0  0  0  0  0  0
    1.9583   -9.4451    4.6046 H   0  0  0  0  0  0  0  0  0  0  0  0
    2.4080   -9.9017    1.6115 H   0  0  0  0  0  0  0  0  0  0  0  0
    0.9530  -10.1634    2.4847 H   0  0  0  0  0  0  0  0  0  0  0  0
    1.0486   -8.2355    0.9152 H   0  0  0  0  0  0  0  0  0  0  0  0
   -0.3282   -6.7010    1.9637 H   0  0  0  0  0  0  0  0  0  0  0  0
   -1.0011   -9.3585    3.3391 H   0  0  0  0  0  0  0  0  0  0  0  0
   -1.3370   -8.9910    1.6477 H   0  0  0  0  0  0  0  0  0  0  0  0
   -2.1034   -8.0596    2.9146 H   0  0  0  0  0  0  0  0  0  0  0  0
    3.9907   -5.8671   -0.7184 H   0  0  0  0  0  0  0  0  0  0  0  0
    6.1754   -4.5991   -0.3554 H   0  0  0  0  0  0  0  0  0  0  0  0
    5.4218   -3.7312    0.9733 H   0  0  0  0  0  0  0  0  0  0  0  0
    4.8103   -3.5334   -0.6627 H   0  0  0  0  0  0  0  0  0  0  0  0
    5.7238   -6.9458    0.7466 H   0  0  0  0  0  0  0  0  0  0  0  0
    5.1887   -6.0026    2.1045 H   0  0  0  0  0  0  0  0  0  0  0  0
    3.7137   -8.2179    0.6759 H   0  0  0  0  0  0  0  0  0  0  0  0
  1  2  1  0
  1 22  1  0
  1 23  1  0
  1 24  1  0
  2  3  1  0
  3 12  1  0
  3  4  1  0
  3 25  1  1
  4  5  1  0
  5 14  1  0
  5  6  1  0
  5 26  1  6
  6  7  1  0
  7 21  1  0
  7  8  1  1
  7  9  1  0
  8 27  1  0
  8 28  1  0
  8 29  1  0
  9 10  1  0
  9 30  1  0
  9 31  1  0
 10 11  1  0
 10 32  1  0
 10 33  1  0
 11 12  1  0
 11 14  1  0
 11 34  1  6
 12 13  1  0
 12 35  1  6
 13 36  1  0
 13 37  1  0
 13 38  1  0
 14 20  1  0
 14 15  1  6
 15 16  1  0
 16 17  1  0
 17 18  1  0
 17 19  1  0
 17 39  1  6
 18 40  1  0
 18 41  1  0
 18 42  1  0
 19 20  1  0
 19 43  1  0
 19 44  1  0
 20 21  1  0
 20 45  1  6
M  END
>  <i_m_ct_stereo_status>  (121) 
1

>  <s_m_source_file>  (121) 
/var/tmp/pbs.5076255.sched01/tmpmmp70uc3/38qnywpnyg.sdf

>  <i_m_source_file_index>  (121) 
16

>  <i_lp_mmshare_version>  (121) 
48012

>  <i_f3d_flags>  (121) 
0

>  <s_epik_input>  (121) 
W0NAXTEyM1tDQEhdNE9bQ0BASF0oT1tDSDNdKVtDQEhdKFtDSDNdKVtDQEBIXTFbQ0gyXVtDSDJdW0NAQF0oTzQpKFtDSDNdKU9bQ0BASF0zW0NIMl1bQ0BASF0oT08yKVtDSDNd

>  <s_epik_cmdline>  (121) 
J2VwaWtfcHl0aG9uJywgJy1waHQnLCAnMi4wJywgJy1waCcsICc3LjAnLCAnLXRuJywgJzgnLCAnLW1hJywgJzIwMCcsICctaW1hZScsICc8aW5maWxlLm1hZT4nLCAnLW9tYWUnLCAnPG91dGZpbGUubWFlPic=

>  <r_lp_tautomer_probability>  (121) 
1

>  <r_epik_Ionization_Penalty>  (121) 
6.94759e-13

>  <r_epik_Ionization_Penalty_Charging>  (121) 
0

>  <r_epik_Ionization_Penalty_Neutral>  (121) 
6.94759e-13

>  <r_epik_State_Penalty>  (121) 
-0

>  <r_epik_Charging_Adjusted_Penalty>  (121) 
0

>  <i_epik_Tot_Q>  (121) 
0

>  <i_epik_Tot_abs_Q>  (121) 
0

>  <s_epik_Chemistry_Notes>  (121) 
This compound contains an acetal/aminal-like group ( X-CH(R)-Y where X, Y are N, S, or O) that may be acid/base labile, releasing an aldehyde.

>  <s_lp_Force_Field>  (121) 
OPLS3e

>  <r_lp_Energy>  (121) 
28.854

>  <b_lp_Chiralities_Consistent>  (121) 
1

>  <s_lp_Variant>  (121) 
38:0-1

>  <s_i_glide_gridfile>  (121) 
pfpi4k_grid

>  <i_i_glide_lignum>  (121) 
16

>  <i_i_glide_rotatable_bonds>  (121) 
1

>  <r_i_docking_score>  (121) 
-2.64805

>  <r_i_glide_ligand_efficiency>  (121) 
-0.126098

>  <r_i_glide_ligand_efficiency_sa>  (121) 
-0.347894

>  <r_i_glide_ligand_efficiency_ln>  (121) 
-0.654725

>  <r_i_glide_gscore>  (121) 
-2.64805

>  <r_i_glide_lipo>  (121) 
-0.298484

>  <r_i_glide_hbond>  (121) 
0

>  <r_i_glide_metal>  (121) 
-0

>  <r_i_glide_rewards>  (121) 
-1.36127

>  <r_i_glide_evdw>  (121) 
-16.2384

>  <r_i_glide_ecoul>  (121) 
-0.951462

>  <r_i_glide_erotb>  (121) 
0

>  <r_i_glide_esite>  (121) 
-0.0336572

>  <r_i_glide_emodel>  (121) 
-20.5183

>  <r_i_glide_energy>  (121) 
-17.1899

>  <r_i_glide_einternal>  (121) 
0.047809

>  <r_i_glide_intrahb_reward>  (121) 
-0

>  <i_i_glide_confnum>  (121) 
2

>  <i_i_glide_posenum>  (121) 
8

>  <r_i_glide_eff_state_penalty>  (121) 
0

>  <ligand_id>  (121) 
38

>  <original_smiles>  (121) 
COC1OC2OC3(C)CCC(C1C)C21OOC(C)CC1O3

>  <smiles>  (121) 
[H]C([H])([H])OC1([H])OC2([H])OC3(C([H])([H])[H])OC4([H])C([H])([H])C([H])(C([H])([H])[H])OOC24C([H])(C([H])([H])C3([H])[H])C1([H])C([H])([H])[H]

$$$$
39:1:0
     RDKit          3D

 65 69  0  0  1  0  0  0  0  0999 V2000
   -2.0252   -8.2072    3.5671 C   0  0  0  0  0  0  0  0  0  0  0  0
   -1.0519   -8.6144    4.1685 C   0  0  0  0  0  0  0  0  0  0  0  0
    0.1859   -9.0159    4.8709 C   0  0  1  0  0  0  0  0  0  0  0  0
   -0.1921   -9.5046    6.1245 O   0  0  0  0  0  0  0  0  0  0  0  0
    0.8962  -10.0849    4.0167 C   0  0  0  0  0  0  0  0  0  0  0  0
    2.2393   -9.5307    3.5480 C   0  0  0  0  0  0  0  0  0  0  0  0
    2.1526   -8.0387    3.7835 C   0  0  1  0  0  0  0  0  0  0  0  0
    1.6249   -7.1901    2.5723 C   0  0  2  0  0  0  0  0  0  0  0  0
    2.5521   -7.1687    1.3389 C   0  0  0  0  0  0  0  0  0  0  0  0
    3.7712   -6.2571    1.5266 C   0  0  0  0  0  0  0  0  0  0  0  0
    3.3504   -4.8223    1.8916 C   0  0  2  0  0  0  0  0  0  0  0  0
    4.5707   -3.9121    2.0938 C   0  0  0  0  0  0  0  0  0  0  0  0
    4.1412   -2.4562    2.4152 C   0  0  1  0  0  0  0  0  0  0  0  0
    5.2814   -1.6907    2.7412 O   0  0  0  0  0  0  0  0  0  0  0  0
    3.4431   -1.8108    1.2040 C   0  0  0  0  0  0  0  0  0  0  0  0
    4.2557   -1.7570   -0.0020 N   0  0  0  0  0  0  0  0  0  0  0  0
    3.8156   -1.4515   -1.2686 C   0  0  0  0  0  0  0  0  0  0  0  0
    4.9286   -1.5046   -2.0988 C   0  0  0  0  0  0  0  0  0  0  0  0
    6.0504   -1.8425   -1.3728 N   0  0  0  0  0  0  0  0  0  0  0  0
    5.5973   -1.9700   -0.1428 C   0  0  0  0  0  0  0  0  0  0  0  0
    3.2442   -2.4073    3.6550 C   0  0  0  0  0  0  0  0  0  0  0  0
    2.0225   -3.3229    3.4815 C   0  0  0  0  0  0  0  0  0  0  0  0
    2.4758   -4.7785    3.1696 C   0  0  2  0  0  0  0  0  0  0  0  0
    3.3650   -5.2140    4.3804 C   0  0  0  0  0  0  0  0  0  0  0  0
    1.2403   -5.7151    2.9430 C   0  0  2  0  0  0  0  0  0  0  0  0
    0.2358   -5.6912    4.1245 C   0  0  0  0  0  0  0  0  0  0  0  0
    0.6891   -6.4933    5.3802 C   0  0  0  0  0  0  0  0  0  0  0  0
    1.2832   -7.9117    5.0769 C   0  0  1  0  0  0  0  0  0  0  0  0
    2.2030   -8.2693    6.2809 C   0  0  0  0  0  0  0  0  0  0  0  0
   -2.7863   -7.6661    3.0498 H   0  0  0  0  0  0  0  0  0  0  0  0
   -0.8471  -10.1709    5.9151 H   0  0  0  0  0  0  0  0  0  0  0  0
    1.0581  -11.0021    4.5677 H   0  0  0  0  0  0  0  0  0  0  0  0
    0.3362  -10.3108    3.1153 H   0  0  0  0  0  0  0  0  0  0  0  0
    3.0448   -9.9062    4.1846 H   0  0  0  0  0  0  0  0  0  0  0  0
    2.5398   -9.7878    2.5308 H   0  0  0  0  0  0  0  0  0  0  0  0
    3.2053   -7.9150    3.9529 H   0  0  0  0  0  0  0  0  0  0  0  0
    0.7101   -7.6945    2.2292 H   0  0  0  0  0  0  0  0  0  0  0  0
    2.8839   -8.1720    1.0799 H   0  0  0  0  0  0  0  0  0  0  0  0
    1.9849   -6.8030    0.4800 H   0  0  0  0  0  0  0  0  0  0  0  0
    4.4348   -6.6714    2.2833 H   0  0  0  0  0  0  0  0  0  0  0  0
    4.3616   -6.2395    0.6112 H   0  0  0  0  0  0  0  0  0  0  0  0
    2.7666   -4.4660    1.0442 H   0  0  0  0  0  0  0  0  0  0  0  0
    5.2560   -4.2889    2.8496 H   0  0  0  0  0  0  0  0  0  0  0  0
    5.1763   -4.0191    1.2090 H   0  0  0  0  0  0  0  0  0  0  0  0
    5.8021   -1.6359    1.9560 H   0  0  0  0  0  0  0  0  0  0  0  0
    2.5291   -2.3550    0.9494 H   0  0  0  0  0  0  0  0  0  0  0  0
    3.1006   -0.8068    1.4558 H   0  0  0  0  0  0  0  0  0  0  0  0
    2.7835   -1.2182   -1.4761 H   0  0  0  0  0  0  0  0  0  0  0  0
    5.0009   -1.3168   -3.1441 H   0  0  0  0  0  0  0  0  0  0  0  0
    6.2671   -2.2696    0.6299 H   0  0  0  0  0  0  0  0  0  0  0  0
    3.8181   -2.6807    4.5416 H   0  0  0  0  0  0  0  0  0  0  0  0
    2.9251   -1.3939    3.8666 H   0  0  0  0  0  0  0  0  0  0  0  0
    1.4517   -3.2990    4.4101 H   0  0  0  0  0  0  0  0  0  0  0  0
    1.3556   -2.9430    2.7101 H   0  0  0  0  0  0  0  0  0  0  0  0
    2.9022   -5.0542    5.3390 H   0  0  0  0  0  0  0  0  0  0  0  0
    4.2728   -4.6303    4.5176 H   0  0  0  0  0  0  0  0  0  0  0  0
    3.8175   -6.1672    4.2434 H   0  0  0  0  0  0  0  0  0  0  0  0
    0.6675   -5.3425    2.0875 H   0  0  0  0  0  0  0  0  0  0  0  0
   -0.1291   -4.6940    4.3897 H   0  0  0  0  0  0  0  0  0  0  0  0
   -0.6809   -6.0827    3.7236 H   0  0  0  0  0  0  0  0  0  0  0  0
    1.3398   -5.9082    5.9976 H   0  0  0  0  0  0  0  0  0  0  0  0
   -0.1135   -6.5645    6.1190 H   0  0  0  0  0  0  0  0  0  0  0  0
    3.0945   -7.6286    6.3595 H   0  0  0  0  0  0  0  0  0  0  0  0
    2.5428   -9.3056    6.2213 H   0  0  0  0  0  0  0  0  0  0  0  0
    1.6500   -8.1871    7.2197 H   0  0  0  0  0  0  0  0  0  0  0  0
  1  2  3  0
  1 30  1  0
  3  2  1  6
  3 28  1  0
  3  4  1  0
  3  5  1  0
  4 31  1  0
  5  6  1  0
  5 32  1  0
  5 33  1  0
  6  7  1  0
  6 34  1  0
  6 35  1  0
  7 28  1  0
  7  8  1  0
  7 36  1  1
  8 25  1  0
  8  9  1  0
  8 37  1  6
  9 10  1  0
  9 38  1  0
  9 39  1  0
 10 11  1  0
 10 40  1  0
 10 41  1  0
 11 23  1  0
 11 12  1  0
 11 42  1  6
 12 13  1  0
 12 43  1  0
 12 44  1  0
 13 14  1  1
 13 15  1  0
 13 21  1  0
 14 45  1  0
 15 16  1  0
 15 46  1  0
 15 47  1  0
 16 20  1  0
 16 17  1  0
 17 18  2  0
 17 48  1  0
 18 19  1  0
 18 49  1  0
 19 20  2  0
 20 50  1  0
 21 22  1  0
 21 51  1  0
 21 52  1  0
 22 23  1  0
 22 53  1  0
 22 54  1  0
 23 24  1  1
 23 25  1  0
 24 55  1  0
 24 56  1  0
 24 57  1  0
 25 26  1  0
 25 58  1  6
 26 27  1  0
 26 59  1  0
 26 60  1  0
 27 28  1  0
 27 61  1  0
 27 62  1  0
 28 29  1  1
 29 63  1  0
 29 64  1  0
 29 65  1  0
M  END
>  <i_m_ct_stereo_status>  (122) 
1

>  <s_m_source_file>  (122) 
/var/tmp/pbs.5076255.sched01/tmpmmp70uc3/38qnywpnyg.sdf

>  <i_m_source_file_index>  (122) 
18

>  <i_lp_mmshare_version>  (122) 
48012

>  <i_f3d_flags>  (122) 
0

>  <s_epik_input>  (122) 
W0NIXSNDW0NAQF0oW09IXSkoW0NIMl1bQ0gyXTEpW0NAXShbQ0gzXSkoW0NIMl1bQ0gyXVtDQEhdMjMpW0NAQEhdMVtDQEBIXTJbQ0gyXVtDSDJdW0NAQEhdKFtDQF0zNFtDSDNdKVtDSDJdW0NAXShbT0hdKShbQ0gyXVtDSDJdNClbQ0gyXW41W2NIXVtjSF1uW2NIXTU=

>  <s_epik_cmdline>  (122) 
J2VwaWtfcHl0aG9uJywgJy1waHQnLCAnMi4wJywgJy1waCcsICc3LjAnLCAnLXRuJywgJzgnLCAnLW1hJywgJzIwMCcsICctaW1hZScsICc8aW5maWxlLm1hZT4nLCAnLW9tYWUnLCAnPG91dGZpbGUubWFlPic=

>  <r_lp_tautomer_probability>  (122) 
1

>  <r_epik_Ionization_Penalty>  (122) 
1.20012

>  <r_epik_Ionization_Penalty_Charging>  (122) 
1.20012

>  <r_epik_Ionization_Penalty_Neutral>  (122) 
3.70512e-07

>  <r_epik_State_Penalty>  (122) 
1.26565

>  <r_epik_Charging_Adjusted_Penalty>  (122) 
2.46577

>  <i_epik_Tot_Q>  (122) 
0

>  <i_epik_Tot_abs_Q>  (122) 
0

>  <s_lp_Force_Field>  (122) 
OPLS3e

>  <r_lp_Energy>  (122) 
61.2522

>  <b_lp_Chiralities_Consistent>  (122) 
1

>  <s_lp_Variant>  (122) 
39:0-2

>  <s_i_glide_gridfile>  (122) 
pfpi4k_grid

>  <i_i_glide_lignum>  (122) 
18

>  <i_i_glide_rotatable_bonds>  (122) 
5

>  <r_i_docking_score>  (122) 
-2.62497

>  <r_i_glide_ligand_efficiency>  (122) 
-0.0905163

>  <r_i_glide_ligand_efficiency_sa>  (122) 
-0.278095

>  <r_i_glide_ligand_efficiency_ln>  (122) 
-0.601052

>  <r_i_glide_gscore>  (122) 
-2.62497

>  <r_i_glide_lipo>  (122) 
-0.0813707

>  <r_i_glide_hbond>  (122) 
-0.26504

>  <r_i_glide_metal>  (122) 
-0

>  <r_i_glide_rewards>  (122) 
-0.705235

>  <r_i_glide_evdw>  (122) 
-23.7193

>  <r_i_glide_ecoul>  (122) 
-5.29401

>  <r_i_glide_erotb>  (122) 
0.373247

>  <r_i_glide_esite>  (122) 
-0.0297741

>  <r_i_glide_emodel>  (122) 
-21.3561

>  <r_i_glide_energy>  (122) 
-29.0133

>  <r_i_glide_einternal>  (122) 
17.7517

>  <r_i_glide_intrahb_reward>  (122) 
-0

>  <i_i_glide_confnum>  (122) 
3

>  <i_i_glide_posenum>  (122) 
23

>  <r_i_glide_eff_state_penalty>  (122) 
0

>  <ligand_id>  (122) 
39

>  <original_smiles>  (122) 
C#CC1(O)CCC2C3CCC4CC(O)(Cn5ccnc5)CCC4(C)C3CCC21C

>  <smiles>  (122) 
[H]C#CC1(O[H])C([H])([H])C([H])([H])C2([H])C3([H])C([H])([H])C([H])([H])C4([H])C([H])([H])C(O[H])(C([H])([H])n5c([H])nc([H])c5[H])C([H])([H])C([H])([H])C4(C([H])([H])[H])C3([H])C([H])([H])C([H])([H])C12C([H])([H])[H]

$$$$
39:1:1
     RDKit          3D

 65 69  0  0  1  0  0  0  0  0999 V2000
   -2.0666   -8.2427    3.7177 C   0  0  0  0  0  0  0  0  0  0  0  0
   -1.0936   -8.6348    4.3024 C   0  0  0  0  0  0  0  0  0  0  0  0
    0.1493   -9.0690    4.9836 C   0  0  1  0  0  0  0  0  0  0  0  0
   -0.2151   -9.5130    6.2645 O   0  0  0  0  0  0  0  0  0  0  0  0
    0.8142  -10.1675    4.1437 C   0  0  0  0  0  0  0  0  0  0  0  0
    2.1629   -9.6247    3.6170 C   0  0  0  0  0  0  0  0  0  0  0  0
    2.1168   -8.1221    3.8172 C   0  0  1  0  0  0  0  0  0  0  0  0
    1.5450   -7.3174    2.5996 C   0  0  2  0  0  0  0  0  0  0  0  0
    2.4204   -7.3405    1.3314 C   0  0  0  0  0  0  0  0  0  0  0  0
    3.6580   -6.4337    1.4510 C   0  0  0  0  0  0  0  0  0  0  0  0
    3.2734   -4.9792    1.7791 C   0  0  2  0  0  0  0  0  0  0  0  0
    4.5103   -4.0702    1.9045 C   0  0  0  0  0  0  0  0  0  0  0  0
    4.0975   -2.6155    2.2019 C   0  0  1  0  0  0  0  0  0  0  0  0
    5.2659   -1.8482    2.4179 O   0  0  0  0  0  0  0  0  0  0  0  0
    3.3368   -1.9943    1.0125 C   0  0  0  0  0  0  0  0  0  0  0  0
    4.0687   -2.0572   -0.2402 N   0  0  0  0  0  0  0  0  0  0  0  0
    4.1083   -3.1028   -1.1628 C   0  0  0  0  0  0  0  0  0  0  0  0
    4.9354   -2.7162   -2.1880 C   0  0  0  0  0  0  0  0  0  0  0  0
    5.4226   -1.4262   -1.9094 N   0  0  0  0  0  0  0  0  0  0  0  0
    4.8677   -1.1148   -0.7355 C   0  0  0  0  0  0  0  0  0  0  0  0
    3.2415   -2.5167    3.4720 C   0  0  0  0  0  0  0  0  0  0  0  0
    2.0032   -3.4196    3.3748 C   0  0  0  0  0  0  0  0  0  0  0  0
    2.4500   -4.9074    3.1098 C   0  0  2  0  0  0  0  0  0  0  0  0
    3.3557   -5.3540    4.3288 C   0  0  0  0  0  0  0  0  0  0  0  0
    1.1794   -5.8223    2.9275 C   0  0  2  0  0  0  0  0  0  0  0  0
    0.1765   -5.7807    4.1418 C   0  0  0  0  0  0  0  0  0  0  0  0
    0.7192   -6.5082    5.4252 C   0  0  0  0  0  0  0  0  0  0  0  0
    1.2687   -7.9541    5.1190 C   0  0  1  0  0  0  0  0  0  0  0  0
    2.2077   -8.2950    6.3017 C   0  0  0  0  0  0  0  0  0  0  0  0
   -2.8686   -7.7356    3.2106 H   0  0  0  0  0  0  0  0  0  0  0  0
   -0.8246  -10.2127    6.0902 H   0  0  0  0  0  0  0  0  0  0  0  0
    0.9932  -11.0708    4.7157 H   0  0  0  0  0  0  0  0  0  0  0  0
    0.2319  -10.4131    3.2626 H   0  0  0  0  0  0  0  0  0  0  0  0
    2.9729  -10.0058    4.2343 H   0  0  0  0  0  0  0  0  0  0  0  0
    2.4181   -9.9300    2.5913 H   0  0  0  0  0  0  0  0  0  0  0  0
    3.1408   -7.9806    3.9413 H   0  0  0  0  0  0  0  0  0  0  0  0
    0.5975   -7.8203    2.2885 H   0  0  0  0  0  0  0  0  0  0  0  0
    2.7363   -8.3559    1.0894 H   0  0  0  0  0  0  0  0  0  0  0  0
    1.8291   -6.9959    0.4800 H   0  0  0  0  0  0  0  0  0  0  0  0
    4.3402   -6.8369    2.1986 H   0  0  0  0  0  0  0  0  0  0  0  0
    4.2174   -6.4512    0.5178 H   0  0  0  0  0  0  0  0  0  0  0  0
    2.6467   -4.6434    0.9559 H   0  0  0  0  0  0  0  0  0  0  0  0
    5.2042   -4.4370    2.6569 H   0  0  0  0  0  0  0  0  0  0  0  0
    5.1117   -4.1443    1.0079 H   0  0  0  0  0  0  0  0  0  0  0  0
    5.0162   -0.9510    2.5332 H   0  0  0  0  0  0  0  0  0  0  0  0
    2.3921   -2.5034    0.8336 H   0  0  0  0  0  0  0  0  0  0  0  0
    3.0773   -0.9549    1.2221 H   0  0  0  0  0  0  0  0  0  0  0  0
    3.5612   -4.0279   -1.0121 H   0  0  0  0  0  0  0  0  0  0  0  0
    5.2158   -3.2269   -3.0635 H   0  0  0  0  0  0  0  0  0  0  0  0
    5.0494   -0.1689   -0.2269 H   0  0  0  0  0  0  0  0  0  0  0  0
    3.8323   -2.7684    4.3512 H   0  0  0  0  0  0  0  0  0  0  0  0
    2.9289   -1.4983    3.6724 H   0  0  0  0  0  0  0  0  0  0  0  0
    1.4604   -3.3716    4.3199 H   0  0  0  0  0  0  0  0  0  0  0  0
    1.3052   -3.0631    2.6168 H   0  0  0  0  0  0  0  0  0  0  0  0
    2.9025   -5.1260    5.2387 H   0  0  0  0  0  0  0  0  0  0  0  0
    4.2682   -4.7225    4.3724 H   0  0  0  0  0  0  0  0  0  0  0  0
    3.7645   -6.2704    4.1629 H   0  0  0  0  0  0  0  0  0  0  0  0
    0.5879   -5.4658    2.0898 H   0  0  0  0  0  0  0  0  0  0  0  0
   -0.1266   -4.7409    4.3924 H   0  0  0  0  0  0  0  0  0  0  0  0
   -0.7335   -6.1894    3.7832 H   0  0  0  0  0  0  0  0  0  0  0  0
    1.3824   -5.9382    5.9622 H   0  0  0  0  0  0  0  0  0  0  0  0
   -0.0970   -6.5769    6.1621 H   0  0  0  0  0  0  0  0  0  0  0  0
    3.1168   -7.6611    6.3415 H   0  0  0  0  0  0  0  0  0  0  0  0
    2.5497   -9.3361    6.2735 H   0  0  0  0  0  0  0  0  0  0  0  0
    1.6994   -8.1782    7.2667 H   0  0  0  0  0  0  0  0  0  0  0  0
  1  2  3  0
  1 30  1  0
  3  2  1  6
  3 28  1  0
  3  4  1  0
  3  5  1  0
  4 31  1  0
  5  6  1  0
  5 32  1  0
  5 33  1  0
  6  7  1  0
  6 34  1  0
  6 35  1  0
  7 28  1  0
  7  8  1  0
  7 36  1  1
  8 25  1  0
  8  9  1  0
  8 37  1  6
  9 10  1  0
  9 38  1  0
  9 39  1  0
 10 11  1  0
 10 40  1  0
 10 41  1  0
 11 23  1  0
 11 12  1  0
 11 42  1  6
 12 13  1  0
 12 43  1  0
 12 44  1  0
 13 14  1  1
 13 15  1  0
 13 21  1  0
 14 45  1  0
 15 16  1  0
 15 46  1  0
 15 47  1  0
 16 20  1  0
 16 17  1  0
 17 18  2  0
 17 48  1  0
 18 19  1  0
 18 49  1  0
 19 20  2  0
 20 50  1  0
 21 22  1  0
 21 51  1  0
 21 52  1  0
 22 23  1  0
 22 53  1  0
 22 54  1  0
 23 24  1  1
 23 25  1  0
 24 55  1  0
 24 56  1  0
 24 57  1  0
 25 26  1  0
 25 58  1  6
 26 27  1  0
 26 59  1  0
 26 60  1  0
 27 28  1  0
 27 61  1  0
 27 62  1  0
 28 29  1  1
 29 63  1  0
 29 64  1  0
 29 65  1  0
M  END
>  <i_m_ct_stereo_status>  (123) 
1

>  <s_m_source_file>  (123) 
/var/tmp/pbs.5076255.sched01/tmpmmp70uc3/38qnywpnyg.sdf

>  <i_m_source_file_index>  (123) 
18

>  <i_lp_mmshare_version>  (123) 
48012

>  <i_f3d_flags>  (123) 
0

>  <s_epik_input>  (123) 
W0NIXSNDW0NAQF0oW09IXSkoW0NIMl1bQ0gyXTEpW0NAXShbQ0gzXSkoW0NIMl1bQ0gyXVtDQEhdMjMpW0NAQEhdMVtDQEBIXTJbQ0gyXVtDSDJdW0NAQEhdKFtDQF0zNFtDSDNdKVtDSDJdW0NAXShbT0hdKShbQ0gyXVtDSDJdNClbQ0gyXW41W2NIXVtjSF1uW2NIXTU=

>  <s_epik_cmdline>  (123) 
J2VwaWtfcHl0aG9uJywgJy1waHQnLCAnMi4wJywgJy1waCcsICc3LjAnLCAnLXRuJywgJzgnLCAnLW1hJywgJzIwMCcsICctaW1hZScsICc8aW5maWxlLm1hZT4nLCAnLW9tYWUnLCAnPG91dGZpbGUubWFlPic=

>  <r_lp_tautomer_probability>  (123) 
1

>  <r_epik_Ionization_Penalty>  (123) 
1.20012

>  <r_epik_Ionization_Penalty_Charging>  (123) 
1.20012

>  <r_epik_Ionization_Penalty_Neutral>  (123) 
3.70512e-07

>  <r_epik_State_Penalty>  (123) 
1.26565

>  <r_epik_Charging_Adjusted_Penalty>  (123) 
2.46577

>  <i_epik_Tot_Q>  (123) 
0

>  <i_epik_Tot_abs_Q>  (123) 
0

>  <s_lp_Force_Field>  (123) 
OPLS3e

>  <r_lp_Energy>  (123) 
61.2522

>  <b_lp_Chiralities_Consistent>  (123) 
1

>  <s_lp_Variant>  (123) 
39:0-2

>  <s_i_glide_gridfile>  (123) 
pfpi4k_grid

>  <i_i_glide_lignum>  (123) 
18

>  <i_i_glide_rotatable_bonds>  (123) 
5

>  <r_i_docking_score>  (123) 
-2.56865

>  <r_i_glide_ligand_efficiency>  (123) 
-0.0885742

>  <r_i_glide_ligand_efficiency_sa>  (123) 
-0.272128

>  <r_i_glide_ligand_efficiency_ln>  (123) 
-0.588156

>  <r_i_glide_gscore>  (123) 
-2.56865

>  <r_i_glide_lipo>  (123) 
-0.170313

>  <r_i_glide_hbond>  (123) 
-0.16

>  <r_i_glide_metal>  (123) 
-0

>  <r_i_glide_rewards>  (123) 
-0.705235

>  <r_i_glide_evdw>  (123) 
-24.7534

>  <r_i_glide_ecoul>  (123) 
-4.50518

>  <r_i_glide_erotb>  (123) 
0.373247

>  <r_i_glide_esite>  (123) 
-0.0645797

>  <r_i_glide_emodel>  (123) 
-23.2078

>  <r_i_glide_energy>  (123) 
-29.2586

>  <r_i_glide_einternal>  (123) 
14.2765

>  <r_i_glide_intrahb_reward>  (123) 
-0

>  <i_i_glide_confnum>  (123) 
3

>  <i_i_glide_posenum>  (123) 
34

>  <r_i_glide_eff_state_penalty>  (123) 
0

>  <ligand_id>  (123) 
39

>  <original_smiles>  (123) 
C#CC1(O)CCC2C3CCC4CC(O)(Cn5ccnc5)CCC4(C)C3CCC21C

>  <smiles>  (123) 
[H]C#CC1(O[H])C([H])([H])C([H])([H])C2([H])C3([H])C([H])([H])C([H])([H])C4([H])C([H])([H])C(O[H])(C([H])([H])n5c([H])nc([H])c5[H])C([H])([H])C([H])([H])C4(C([H])([H])[H])C3([H])C([H])([H])C([H])([H])C12C([H])([H])[H]

$$$$
39:1:2
     RDKit          3D

 65 69  0  0  1  0  0  0  0  0999 V2000
   -0.7447   -5.7719    6.1739 C   0  0  0  0  0  0  0  0  0  0  0  0
    0.2040   -6.5481    6.1470 C   0  0  0  0  0  0  0  0  0  0  0  0
    1.4052   -7.4068    6.0460 C   0  0  1  0  0  0  0  0  0  0  0  0
    1.7446   -7.7771    7.3685 O   0  0  0  0  0  0  0  0  0  0  0  0
    1.0380   -8.6408    5.1818 C   0  0  0  0  0  0  0  0  0  0  0  0
    1.8814   -8.5975    3.9022 C   0  0  0  0  0  0  0  0  0  0  0  0
    2.4195   -7.1997    3.8358 C   0  0  1  0  0  0  0  0  0  0  0  0
    1.5683   -6.1754    3.0174 C   0  0  2  0  0  0  0  0  0  0  0  0
    1.4624   -6.4679    1.5086 C   0  0  0  0  0  0  0  0  0  0  0  0
    2.7367   -6.0802    0.7460 C   0  0  0  0  0  0  0  0  0  0  0  0
    3.1263   -4.6082    0.9641 C   0  0  2  0  0  0  0  0  0  0  0  0
    4.4026   -4.2264    0.1795 C   0  0  0  0  0  0  0  0  0  0  0  0
    4.7447   -2.7338    0.3837 C   0  0  1  0  0  0  0  0  0  0  0  0
    5.9791   -2.4848   -0.2610 O   0  0  0  0  0  0  0  0  0  0  0  0
    3.6745   -1.8121   -0.2577 C   0  0  0  0  0  0  0  0  0  0  0  0
    3.5293   -2.0082   -1.6781 N   0  0  0  0  0  0  0  0  0  0  0  0
    2.8504   -3.0350   -2.3481 C   0  0  0  0  0  0  0  0  0  0  0  0
    2.9924   -2.7933   -3.6856 C   0  0  0  0  0  0  0  0  0  0  0  0
    3.7629   -1.6328   -3.8835 N   0  0  0  0  0  0  0  0  0  0  0  0
    4.0246   -1.2153   -2.6416 C   0  0  0  0  0  0  0  0  0  0  0  0
    4.9052   -2.3851    1.8769 C   0  0  0  0  0  0  0  0  0  0  0  0
    3.6416   -2.7821    2.6651 C   0  0  0  0  0  0  0  0  0  0  0  0
    3.3386   -4.3051    2.4810 C   0  0  2  0  0  0  0  0  0  0  0  0
    4.5912   -5.0421    2.9557 C   0  0  0  0  0  0  0  0  0  0  0  0
    1.9936   -4.6806    3.2338 C   0  0  2  0  0  0  0  0  0  0  0  0
    2.0055   -4.3112    4.7398 C   0  0  0  0  0  0  0  0  0  0  0  0
    2.8513   -5.2742    5.6199 C   0  0  0  0  0  0  0  0  0  0  0  0
    2.6685   -6.8006    5.3201 C   0  0  1  0  0  0  0  0  0  0  0  0
    3.9667   -7.5216    5.7900 C   0  0  0  0  0  0  0  0  0  0  0  0
   -1.4276   -4.9742    6.1199 H   0  0  0  0  0  0  0  0  0  0  0  0
    1.9008   -8.7063    7.3662 H   0  0  0  0  0  0  0  0  0  0  0  0
    1.2127   -9.5768    5.7103 H   0  0  0  0  0  0  0  0  0  0  0  0
   -0.0025   -8.6116    4.8586 H   0  0  0  0  0  0  0  0  0  0  0  0
    2.7284   -9.2915    4.0057 H   0  0  0  0  0  0  0  0  0  0  0  0
    1.3689   -8.9266    2.9960 H   0  0  0  0  0  0  0  0  0  0  0  0
    3.3434   -7.4829    3.2993 H   0  0  0  0  0  0  0  0  0  0  0  0
    0.5460   -6.2800    3.3940 H   0  0  0  0  0  0  0  0  0  0  0  0
    1.2208   -7.5108    1.3130 H   0  0  0  0  0  0  0  0  0  0  0  0
    0.6311   -5.8956    1.0888 H   0  0  0  0  0  0  0  0  0  0  0  0
    3.5564   -6.7482    1.0197 H   0  0  0  0  0  0  0  0  0  0  0  0
    2.5837   -6.2526   -0.3274 H   0  0  0  0  0  0  0  0  0  0  0  0
    2.2714   -4.0292    0.5775 H   0  0  0  0  0  0  0  0  0  0  0  0
    5.2386   -4.8575    0.4555 H   0  0  0  0  0  0  0  0  0  0  0  0
    4.2961   -4.4853   -0.8607 H   0  0  0  0  0  0  0  0  0  0  0  0
    5.8845   -2.7495   -1.1645 H   0  0  0  0  0  0  0  0  0  0  0  0
    2.6944   -1.9805    0.1887 H   0  0  0  0  0  0  0  0  0  0  0  0
    3.9107   -0.7718   -0.0494 H   0  0  0  0  0  0  0  0  0  0  0  0
    2.3549   -3.8325   -1.8270 H   0  0  0  0  0  0  0  0  0  0  0  0
    2.6139   -3.3549   -4.5206 H   0  0  0  0  0  0  0  0  0  0  0  0
    4.5978   -0.3314   -2.4222 H   0  0  0  0  0  0  0  0  0  0  0  0
    5.7790   -2.8787    2.2896 H   0  0  0  0  0  0  0  0  0  0  0  0
    5.1215   -1.3374    2.0253 H   0  0  0  0  0  0  0  0  0  0  0  0
    3.8192   -2.5691    3.7194 H   0  0  0  0  0  0  0  0  0  0  0  0
    2.7866   -2.1420    2.3852 H   0  0  0  0  0  0  0  0  0  0  0  0
    4.8920   -4.7734    3.9596 H   0  0  0  0  0  0  0  0  0  0  0  0
    5.4680   -4.8681    2.4324 H   0  0  0  0  0  0  0  0  0  0  0  0
    4.5159   -6.1176    2.8091 H   0  0  0  0  0  0  0  0  0  0  0  0
    1.1642   -4.0732    2.8135 H   0  0  0  0  0  0  0  0  0  0  0  0
    2.2499   -3.2699    4.9295 H   0  0  0  0  0  0  0  0  0  0  0  0
    0.9949   -4.3095    5.0326 H   0  0  0  0  0  0  0  0  0  0  0  0
    3.9293   -4.9996    5.5847 H   0  0  0  0  0  0  0  0  0  0  0  0
    2.7214   -5.0698    6.6685 H   0  0  0  0  0  0  0  0  0  0  0  0
    4.8401   -7.2659    5.1930 H   0  0  0  0  0  0  0  0  0  0  0  0
    3.8566   -8.6070    5.7614 H   0  0  0  0  0  0  0  0  0  0  0  0
    4.1926   -7.2685    6.8280 H   0  0  0  0  0  0  0  0  0  0  0  0
  1  2  3  0
  1 30  1  0
  3  2  1  1
  3 28  1  0
  3  4  1  0
  3  5  1  0
  4 31  1  0
  5  6  1  0
  5 32  1  0
  5 33  1  0
  6  7  1  0
  6 34  1  0
  6 35  1  0
  7 28  1  0
  7  8  1  0
  7 36  1  6
  8 25  1  0
  8  9  1  0
  8 37  1  1
  9 10  1  0
  9 38  1  0
  9 39  1  0
 10 11  1  0
 10 40  1  0
 10 41  1  0
 11 23  1  0
 11 12  1  0
 11 42  1  6
 12 13  1  0
 12 43  1  0
 12 44  1  0
 13 14  1  6
 13 15  1  0
 13 21  1  0
 14 45  1  0
 15 16  1  0
 15 46  1  0
 15 47  1  0
 16 20  1  0
 16 17  1  0
 17 18  2  0
 17 48  1  0
 18 19  1  0
 18 49  1  0
 19 20  2  0
 20 50  1  0
 21 22  1  0
 21 51  1  0
 21 52  1  0
 22 23  1  0
 22 53  1  0
 22 54  1  0
 23 24  1  1
 23 25  1  0
 24 55  1  0
 24 56  1  0
 24 57  1  0
 25 26  1  0
 25 58  1  6
 26 27  1  0
 26 59  1  0
 26 60  1  0
 27 28  1  0
 27 61  1  0
 27 62  1  0
 28 29  1  1
 29 63  1  0
 29 64  1  0
 29 65  1  0
M  END
>  <i_m_ct_stereo_status>  (124) 
1

>  <s_m_source_file>  (124) 
/var/tmp/pbs.5076255.sched01/tmpmmp70uc3/38qnywpnyg.sdf

>  <i_m_source_file_index>  (124) 
18

>  <i_lp_mmshare_version>  (124) 
48012

>  <i_f3d_flags>  (124) 
0

>  <s_epik_input>  (124) 
W0NIXSNDW0NAQF0oW09IXSkoW0NIMl1bQ0gyXTEpW0NAXShbQ0gzXSkoW0NIMl1bQ0gyXVtDQEhdMjMpW0NAQEhdMVtDQEBIXTJbQ0gyXVtDSDJdW0NAQEhdKFtDQF0zNFtDSDNdKVtDSDJdW0NAXShbT0hdKShbQ0gyXVtDSDJdNClbQ0gyXW41W2NIXVtjSF1uW2NIXTU=

>  <s_epik_cmdline>  (124) 
J2VwaWtfcHl0aG9uJywgJy1waHQnLCAnMi4wJywgJy1waCcsICc3LjAnLCAnLXRuJywgJzgnLCAnLW1hJywgJzIwMCcsICctaW1hZScsICc8aW5maWxlLm1hZT4nLCAnLW9tYWUnLCAnPG91dGZpbGUubWFlPic=

>  <r_lp_tautomer_probability>  (124) 
1

>  <r_epik_Ionization_Penalty>  (124) 
1.20012

>  <r_epik_Ionization_Penalty_Charging>  (124) 
1.20012

>  <r_epik_Ionization_Penalty_Neutral>  (124) 
3.70512e-07

>  <r_epik_State_Penalty>  (124) 
1.26565

>  <r_epik_Charging_Adjusted_Penalty>  (124) 
2.46577

>  <i_epik_Tot_Q>  (124) 
0

>  <i_epik_Tot_abs_Q>  (124) 
0

>  <s_lp_Force_Field>  (124) 
OPLS3e

>  <r_lp_Energy>  (124) 
61.2522

>  <b_lp_Chiralities_Consistent>  (124) 
1

>  <s_lp_Variant>  (124) 
39:0-2

>  <s_i_glide_gridfile>  (124) 
pfpi4k_grid

>  <i_i_glide_lignum>  (124) 
18

>  <i_i_glide_rotatable_bonds>  (124) 
5

>  <r_i_docking_score>  (124) 
-2.40942

>  <r_i_glide_ligand_efficiency>  (124) 
-0.0830833

>  <r_i_glide_ligand_efficiency_sa>  (124) 
-0.255258

>  <r_i_glide_ligand_efficiency_ln>  (124) 
-0.551695

>  <r_i_glide_gscore>  (124) 
-2.40942

>  <r_i_glide_lipo>  (124) 
-0.33336

>  <r_i_glide_hbond>  (124) 
-0.00306945

>  <r_i_glide_metal>  (124) 
-0

>  <r_i_glide_rewards>  (124) 
-0.705235

>  <r_i_glide_evdw>  (124) 
-25.2768

>  <r_i_glide_ecoul>  (124) 
-3.71593

>  <r_i_glide_erotb>  (124) 
0.373247

>  <r_i_glide_esite>  (124) 
-0.0920287

>  <r_i_glide_emodel>  (124) 
-22.6691

>  <r_i_glide_energy>  (124) 
-28.9927

>  <r_i_glide_einternal>  (124) 
13.7788

>  <r_i_glide_intrahb_reward>  (124) 
-0

>  <i_i_glide_confnum>  (124) 
3

>  <i_i_glide_posenum>  (124) 
1

>  <r_i_glide_eff_state_penalty>  (124) 
0

>  <ligand_id>  (124) 
39

>  <original_smiles>  (124) 
C#CC1(O)CCC2C3CCC4CC(O)(Cn5ccnc5)CCC4(C)C3CCC21C

>  <smiles>  (124) 
[H]C#CC1(O[H])C([H])([H])C([H])([H])C2([H])C3([H])C([H])([H])C([H])([H])C4([H])C([H])([H])C(O[H])(C([H])([H])n5c([H])nc([H])c5[H])C([H])([H])C([H])([H])C4(C([H])([H])[H])C3([H])C([H])([H])C([H])([H])C12C([H])([H])[H]

$$$$
40:0:0
     RDKit          3D

 75 79  0  0  1  0  0  0  0  0999 V2000
    0.1857   -7.5281    1.6730 C   0  0  0  0  0  0  0  0  0  0  0  0
   -0.0320   -8.6736    2.3470 C   0  0  0  0  0  0  0  0  0  0  0  0
   -1.3892   -9.3342    2.3121 C   0  0  0  0  0  0  0  0  0  0  0  0
    1.0196   -9.4068    3.1845 C   0  0  0  0  0  0  0  0  0  0  0  0
    2.3685   -8.6789    3.3373 C   0  0  0  0  0  0  0  0  0  0  0  0
    3.2746   -8.7442    2.0697 C   0  0  0  0  0  0  0  0  0  0  0  0
    4.4788   -7.7714    2.0921 C   0  0  2  0  0  0  0  0  0  0  0  0
    5.2710   -8.0607    3.3874 C   0  0  0  0  0  0  0  0  0  0  0  0
    4.0480   -6.2808    1.8192 C   0  0  2  0  0  0  0  0  0  0  0  0
    3.6324   -6.0231    0.3492 C   0  0  0  0  0  0  0  0  0  0  0  0
    3.9897   -4.5680    0.0258 C   0  0  0  0  0  0  0  0  0  0  0  0
    4.4007   -3.8999    1.3559 C   0  0  1  0  0  0  0  0  0  0  0  0
    3.1957   -3.1311    2.0040 C   0  0  2  0  0  0  0  0  0  0  0  0
    3.0162   -1.6927    1.4281 C   0  0  1  0  0  0  0  0  0  0  0  0
    3.0150   -1.6649    0.0087 O   0  0  0  0  0  0  0  0  0  0  0  0
    1.7327   -1.0117    1.9565 C   0  0  0  0  0  0  0  0  0  0  0  0
    1.7743   -0.9397    3.4840 C   0  0  1  0  0  0  0  0  0  0  0  0
    0.6402   -0.1865    4.1419 C   0  0  0  0  0  0  0  0  0  0  0  0
   -0.2507    0.8371    3.6777 C   0  0  0  0  0  0  0  0  0  0  0  0
   -1.0444    1.1286    4.7388 C   0  0  0  0  0  0  0  0  0  0  0  0
   -0.7453    0.3683    5.8332 O   0  0  0  0  0  0  0  0  0  0  0  0
    0.3016   -0.3934    5.4169 C   0  0  0  0  0  0  0  0  0  0  0  0
    0.8873   -1.4066    6.3786 C   0  0  0  0  0  0  0  0  0  0  0  0
    2.1094   -2.0921    5.7182 C   0  0  0  0  0  0  0  0  0  0  0  0
    1.9738   -2.3410    4.1788 C   0  0  1  0  0  0  0  0  0  0  0  0
    0.7491   -3.2651    3.9517 C   0  0  0  0  0  0  0  0  0  0  0  0
    3.2768   -2.9711    3.5603 C   0  0  1  0  0  0  0  0  0  0  0  0
    3.7394   -4.2687    4.2414 C   0  0  0  0  0  0  0  0  0  0  0  0
    5.0737   -4.7342    3.6492 C   0  0  0  0  0  0  0  0  0  0  0  0
    5.0082   -5.0933    2.1519 C   0  0  1  0  0  0  0  0  0  0  0  0
    6.4535   -5.3141    1.6055 C   0  0  0  0  0  0  0  0  0  0  0  0
   -0.5924   -7.0786    1.0677 H   0  0  0  0  0  0  0  0  0  0  0  0
    1.1334   -7.0231    1.6903 H   0  0  0  0  0  0  0  0  0  0  0  0
   -1.7901   -9.4546    3.3193 H   0  0  0  0  0  0  0  0  0  0  0  0
   -1.3157  -10.3131    1.8426 H   0  0  0  0  0  0  0  0  0  0  0  0
   -2.0949   -8.7356    1.7358 H   0  0  0  0  0  0  0  0  0  0  0  0
    0.5986   -9.5805    4.1779 H   0  0  0  0  0  0  0  0  0  0  0  0
    1.1917  -10.4056    2.7723 H   0  0  0  0  0  0  0  0  0  0  0  0
    2.1815   -7.6599    3.6654 H   0  0  0  0  0  0  0  0  0  0  0  0
    2.9060   -9.1258    4.1789 H   0  0  0  0  0  0  0  0  0  0  0  0
    3.6498   -9.7692    1.9782 H   0  0  0  0  0  0  0  0  0  0  0  0
    2.6988   -8.6083    1.1566 H   0  0  0  0  0  0  0  0  0  0  0  0
    5.1126   -8.0637    1.2642 H   0  0  0  0  0  0  0  0  0  0  0  0
    4.7566   -7.6486    4.2560 H   0  0  0  0  0  0  0  0  0  0  0  0
    6.3024   -7.6954    3.3937 H   0  0  0  0  0  0  0  0  0  0  0  0
    5.3395   -9.1410    3.5460 H   0  0  0  0  0  0  0  0  0  0  0  0
    3.1339   -6.0864    2.3734 H   0  0  0  0  0  0  0  0  0  0  0  0
    4.1552   -6.6851   -0.3437 H   0  0  0  0  0  0  0  0  0  0  0  0
    2.5613   -6.1908    0.1854 H   0  0  0  0  0  0  0  0  0  0  0  0
    4.8362   -4.5612   -0.6585 H   0  0  0  0  0  0  0  0  0  0  0  0
    3.1746   -4.0685   -0.5048 H   0  0  0  0  0  0  0  0  0  0  0  0
    5.1801   -3.1550    1.1796 H   0  0  0  0  0  0  0  0  0  0  0  0
    2.3181   -3.7200    1.7499 H   0  0  0  0  0  0  0  0  0  0  0  0
    3.8873   -1.0958    1.7327 H   0  0  0  0  0  0  0  0  0  0  0  0
    2.1166   -1.4515   -0.3006 H   0  0  0  0  0  0  0  0  0  0  0  0
    1.6498   -0.0078    1.5381 H   0  0  0  0  0  0  0  0  0  0  0  0
    0.8392   -1.5391    1.6215 H   0  0  0  0  0  0  0  0  0  0  0  0
    2.6282   -0.3288    3.7289 H   0  0  0  0  0  0  0  0  0  0  0  0
   -0.2957    1.2981    2.7040 H   0  0  0  0  0  0  0  0  0  0  0  0
   -1.8640    1.8331    4.8897 H   0  0  0  0  0  0  0  0  0  0  0  0
    1.1471   -0.9200    7.3038 H   0  0  0  0  0  0  0  0  0  0  0  0
    0.1257   -2.1314    6.5787 H   0  0  0  0  0  0  0  0  0  0  0  0
    2.9621   -1.4351    5.8572 H   0  0  0  0  0  0  0  0  0  0  0  0
    2.3325   -3.0045    6.2786 H   0  0  0  0  0  0  0  0  0  0  0  0
    0.8665   -4.2227    4.4553 H   0  0  0  0  0  0  0  0  0  0  0  0
    0.5848   -3.4587    2.8983 H   0  0  0  0  0  0  0  0  0  0  0  0
   -0.1724   -2.8238    4.3235 H   0  0  0  0  0  0  0  0  0  0  0  0
    4.0754   -2.2570    3.7572 H   0  0  0  0  0  0  0  0  0  0  0  0
    3.9087   -4.0851    5.3010 H   0  0  0  0  0  0  0  0  0  0  0  0
    2.9686   -5.0397    4.1917 H   0  0  0  0  0  0  0  0  0  0  0  0
    5.7801   -3.9210    3.7770 H   0  0  0  0  0  0  0  0  0  0  0  0
    5.4693   -5.5472    4.2546 H   0  0  0  0  0  0  0  0  0  0  0  0
    7.0136   -4.3794    1.6350 H   0  0  0  0  0  0  0  0  0  0  0  0
    6.4396   -5.6641    0.5734 H   0  0  0  0  0  0  0  0  0  0  0  0
    7.0634   -6.0255    2.1716 H   0  0  0  0  0  0  0  0  0  0  0  0
  1  2  2  0
  1 32  1  0
  1 33  1  0
  2  3  1  0
  2  4  1  0
  3 34  1  0
  3 35  1  0
  3 36  1  0
  4  5  1  0
  4 37  1  0
  4 38  1  0
  5  6  1  0
  5 39  1  0
  5 40  1  0
  6  7  1  0
  6 41  1  0
  6 42  1  0
  7  8  1  0
  7  9  1  0
  7 43  1  6
  8 44  1  0
  8 45  1  0
  8 46  1  0
  9 30  1  0
  9 10  1  0
  9 47  1  1
 10 11  1  0
 10 48  1  0
 10 49  1  0
 11 12  1  0
 11 50  1  0
 11 51  1  0
 12 30  1  0
 12 13  1  0
 12 52  1  6
 13 27  1  0
 13 14  1  0
 13 53  1  1
 14 15  1  0
 14 16  1  0
 14 54  1  1
 15 55  1  0
 16 17  1  0
 16 56  1  0
 16 57  1  0
 17 25  1  0
 17 18  1  0
 17 58  1  6
 18 22  2  0
 18 19  1  0
 19 20  2  0
 19 59  1  0
 20 21  1  0
 20 60  1  0
 21 22  1  0
 22 23  1  0
 23 24  1  0
 23 61  1  0
 23 62  1  0
 24 25  1  0
 24 63  1  0
 24 64  1  0
 25 26  1  1
 25 27  1  0
 26 65  1  0
 26 66  1  0
 26 67  1  0
 27 28  1  0
 27 68  1  6
 28 29  1  0
 28 69  1  0
 28 70  1  0
 29 30  1  0
 29 71  1  0
 29 72  1  0
 30 31  1  6
 31 73  1  0
 31 74  1  0
 31 75  1  0
M  END
>  <i_m_ct_stereo_status>  (125) 
1

>  <s_m_source_file>  (125) 
/var/tmp/pbs.5076255.sched01/tmpmmp70uc3/38qnywpnyg.sdf

>  <i_m_source_file_index>  (125) 
19

>  <i_lp_mmshare_version>  (125) 
48012

>  <i_f3d_flags>  (125) 
0

>  <s_epik_input>  (125) 
W0NIMl09QyhbQ0gzXSlbQ0gyXVtDSDJdW0NIMl1bQ0BIXShbQ0gzXSlbQ0BIXShbQ0gyXVtDSDJdMSlbQ0BdKFtDSDNdKShbQ0gyXVtDSDJdW0NAQEhdMjMpW0NAQEhdMVtDQEBIXTJbQ0BASF0oW09IXSlbQ0gyXVtDQEhdKFtDQEBdMzRbQ0gzXSljNWMoW0NIMl1bQ0gyXTQpb1tjSF1bY0hdNQ==

>  <s_epik_cmdline>  (125) 
J2VwaWtfcHl0aG9uJywgJy1waHQnLCAnMi4wJywgJy1waCcsICc3LjAnLCAnLXRuJywgJzgnLCAnLW1hJywgJzIwMCcsICctaW1hZScsICc8aW5maWxlLm1hZT4nLCAnLW9tYWUnLCAnPG91dGZpbGUubWFlPic=

>  <r_lp_tautomer_probability>  (125) 
1

>  <r_epik_Ionization_Penalty>  (125) 
1.73441e-06

>  <r_epik_Ionization_Penalty_Charging>  (125) 
0

>  <r_epik_Ionization_Penalty_Neutral>  (125) 
1.73441e-06

>  <r_epik_State_Penalty>  (125) 
-0

>  <r_epik_Charging_Adjusted_Penalty>  (125) 
0

>  <i_epik_Tot_Q>  (125) 
0

>  <i_epik_Tot_abs_Q>  (125) 
0

>  <s_lp_Force_Field>  (125) 
OPLS3e

>  <r_lp_Energy>  (125) 
44.2521

>  <b_lp_Chiralities_Consistent>  (125) 
1

>  <s_lp_Variant>  (125) 
40:0-1

>  <s_i_glide_gridfile>  (125) 
pfpi4k_grid

>  <i_i_glide_lignum>  (125) 
19

>  <i_i_glide_rotatable_bonds>  (125) 
6

>  <r_i_docking_score>  (125) 
-2.52057

>  <r_i_glide_ligand_efficiency>  (125) 
-0.0813087

>  <r_i_glide_ligand_efficiency_sa>  (125) 
-0.255422

>  <r_i_glide_ligand_efficiency_ln>  (125) 
-0.568466

>  <r_i_glide_gscore>  (125) 
-2.52057

>  <r_i_glide_lipo>  (125) 
-0.499838

>  <r_i_glide_hbond>  (125) 
-0.16

>  <r_i_glide_metal>  (125) 
-0

>  <r_i_glide_rewards>  (125) 
-0.513692

>  <r_i_glide_evdw>  (125) 
-20.9926

>  <r_i_glide_ecoul>  (125) 
-5.6482

>  <r_i_glide_erotb>  (125) 
0.549819

>  <r_i_glide_esite>  (125) 
0

>  <r_i_glide_emodel>  (125) 
-27.9364

>  <r_i_glide_energy>  (125) 
-26.6408

>  <r_i_glide_einternal>  (125) 
4.98797

>  <r_i_glide_intrahb_reward>  (125) 
-0

>  <i_i_glide_confnum>  (125) 
4

>  <i_i_glide_posenum>  (125) 
30

>  <r_i_glide_eff_state_penalty>  (125) 
0

>  <ligand_id>  (125) 
40

>  <original_smiles>  (125) 
C=C(C)CCCC(C)C1CCC2C3C(O)CC4c5ccoc5CCC4(C)C3CCC12C

>  <smiles>  (125) 
[H]OC1([H])C([H])([H])C2([H])c3c(oc([H])c3[H])C([H])([H])C([H])([H])C2(C([H])([H])[H])C2([H])C([H])([H])C([H])([H])C3(C([H])([H])[H])C([H])(C([H])(C([H])([H])[H])C([H])([H])C([H])([H])C([H])([H])C(=C([H])[H])C([H])([H])[H])C([H])([H])C([H])([H])C3([H])C12[H]

$$$$
40:0:1
     RDKit          3D

 75 79  0  0  1  0  0  0  0  0999 V2000
    3.2251   -7.4834    3.3614 C   0  0  0  0  0  0  0  0  0  0  0  0
    3.1416   -7.7296    2.0393 C   0  0  0  0  0  0  0  0  0  0  0  0
    2.2308   -8.8199    1.5162 C   0  0  0  0  0  0  0  0  0  0  0  0
    3.9279   -6.9734    0.9600 C   0  0  0  0  0  0  0  0  0  0  0  0
    4.7367   -5.7588    1.4540 C   0  0  0  0  0  0  0  0  0  0  0  0
    3.8323   -4.5827    1.8984 C   0  0  0  0  0  0  0  0  0  0  0  0
    4.5713   -3.3853    2.5447 C   0  0  2  0  0  0  0  0  0  0  0  0
    5.1321   -3.8087    3.9196 C   0  0  0  0  0  0  0  0  0  0  0  0
    3.6365   -2.1314    2.6466 C   0  0  2  0  0  0  0  0  0  0  0  0
    2.9807   -1.7633    1.3040 C   0  0  0  0  0  0  0  0  0  0  0  0
    2.8375   -0.2388    1.2554 C   0  0  0  0  0  0  0  0  0  0  0  0
    3.1958    0.2968    2.6524 C   0  0  1  0  0  0  0  0  0  0  0  0
    1.9153    0.5172    3.5234 C   0  0  2  0  0  0  0  0  0  0  0  0
    1.2119    1.8861    3.2506 C   0  0  1  0  0  0  0  0  0  0  0  0
    0.9514    2.1116    1.8839 O   0  0  0  0  0  0  0  0  0  0  0  0
   -0.1328    1.9880    3.9990 C   0  0  0  0  0  0  0  0  0  0  0  0
    0.1062    1.8345    5.5050 C   0  0  1  0  0  0  0  0  0  0  0  0
   -1.0859    2.0707    6.3884 C   0  0  0  0  0  0  0  0  0  0  0  0
   -2.3058    2.7889    6.2090 C   0  0  0  0  0  0  0  0  0  0  0  0
   -2.9924    2.6386    7.3872 C   0  0  0  0  0  0  0  0  0  0  0  0
   -2.2984    1.8723    8.2726 O   0  0  0  0  0  0  0  0  0  0  0  0
   -1.1518    1.5594    7.6429 C   0  0  0  0  0  0  0  0  0  0  0  0
   -0.1550    0.6821    8.3225 C   0  0  0  0  0  0  0  0  0  0  0  0
    1.1061    0.5397    7.4434 C   0  0  0  0  0  0  0  0  0  0  0  0
    0.8331    0.4948    5.8969 C   0  0  1  0  0  0  0  0  0  0  0  0
   -0.0669   -0.7380    5.5997 C   0  0  0  0  0  0  0  0  0  0  0  0
    2.1620    0.4441    5.0617 C   0  0  1  0  0  0  0  0  0  0  0  0
    3.0881   -0.7205    5.4544 C   0  0  0  0  0  0  0  0  0  0  0  0
    4.3977   -0.6347    4.6791 C   0  0  0  0  0  0  0  0  0  0  0  0
    4.2194   -0.7720    3.1528 C   0  0  1  0  0  0  0  0  0  0  0  0
    5.5955   -0.4988    2.5038 C   0  0  0  0  0  0  0  0  0  0  0  0
    2.6346   -8.0479    4.0704 H   0  0  0  0  0  0  0  0  0  0  0  0
    3.8672   -6.7259    3.7765 H   0  0  0  0  0  0  0  0  0  0  0  0
    2.7872   -9.5545    0.9332 H   0  0  0  0  0  0  0  0  0  0  0  0
    1.4529   -8.3926    0.8817 H   0  0  0  0  0  0  0  0  0  0  0  0
    1.7440   -9.3492    2.3360 H   0  0  0  0  0  0  0  0  0  0  0  0
    4.6004   -7.6862    0.4804 H   0  0  0  0  0  0  0  0  0  0  0  0
    3.2485   -6.6423    0.1704 H   0  0  0  0  0  0  0  0  0  0  0  0
    5.4252   -6.0966    2.2261 H   0  0  0  0  0  0  0  0  0  0  0  0
    5.3871   -5.4057    0.6489 H   0  0  0  0  0  0  0  0  0  0  0  0
    3.2930   -4.2816    1.0013 H   0  0  0  0  0  0  0  0  0  0  0  0
    3.0494   -4.8965    2.5876 H   0  0  0  0  0  0  0  0  0  0  0  0
    5.4123   -3.1469    1.8909 H   0  0  0  0  0  0  0  0  0  0  0  0
    4.3508   -3.9116    4.6730 H   0  0  0  0  0  0  0  0  0  0  0  0
    5.8474   -3.0863    4.2881 H   0  0  0  0  0  0  0  0  0  0  0  0
    5.6758   -4.7504    3.8890 H   0  0  0  0  0  0  0  0  0  0  0  0
    2.8127   -2.4055    3.3007 H   0  0  0  0  0  0  0  0  0  0  0  0
    3.5894   -2.0852    0.4559 H   0  0  0  0  0  0  0  0  0  0  0  0
    2.0083   -2.2519    1.2137 H   0  0  0  0  0  0  0  0  0  0  0  0
    3.5420    0.1433    0.5174 H   0  0  0  0  0  0  0  0  0  0  0  0
    1.8438    0.0435    0.9042 H   0  0  0  0  0  0  0  0  0  0  0  0
    3.6864    1.2643    2.5613 H   0  0  0  0  0  0  0  0  0  0  0  0
    1.2409   -0.2861    3.2398 H   0  0  0  0  0  0  0  0  0  0  0  0
    1.8759    2.6869    3.5842 H   0  0  0  0  0  0  0  0  0  0  0  0
    0.6441    3.0060    1.7049 H   0  0  0  0  0  0  0  0  0  0  0  0
   -0.5906    2.9608    3.8065 H   0  0  0  0  0  0  0  0  0  0  0  0
   -0.8485    1.2477    3.6361 H   0  0  0  0  0  0  0  0  0  0  0  0
    0.7576    2.6484    5.7901 H   0  0  0  0  0  0  0  0  0  0  0  0
   -2.6480    3.3442    5.3474 H   0  0  0  0  0  0  0  0  0  0  0  0
   -3.9557    2.9712    7.7465 H   0  0  0  0  0  0  0  0  0  0  0  0
    0.0698    1.0681    9.3087 H   0  0  0  0  0  0  0  0  0  0  0  0
   -0.5844   -0.2936    8.4539 H   0  0  0  0  0  0  0  0  0  0  0  0
    1.7259    1.4080    7.6331 H   0  0  0  0  0  0  0  0  0  0  0  0
    1.6784   -0.3268    7.8004 H   0  0  0  0  0  0  0  0  0  0  0  0
    0.4185   -1.6716    5.8996 H   0  0  0  0  0  0  0  0  0  0  0  0
   -0.3453   -0.8309    4.5511 H   0  0  0  0  0  0  0  0  0  0  0  0
   -1.0144   -0.6965    6.1415 H   0  0  0  0  0  0  0  0  0  0  0  0
    2.7193    1.3367    5.3342 H   0  0  0  0  0  0  0  0  0  0  0  0
    3.3572   -0.6572    6.5084 H   0  0  0  0  0  0  0  0  0  0  0  0
    2.6111   -1.6883    5.3140 H   0  0  0  0  0  0  0  0  0  0  0  0
    4.8489    0.3342    4.8875 H   0  0  0  0  0  0  0  0  0  0  0  0
    5.1039   -1.3533    5.0836 H   0  0  0  0  0  0  0  0  0  0  0  0
    5.9242    0.5104    2.7392 H   0  0  0  0  0  0  0  0  0  0  0  0
    5.5794   -0.6086    1.4192 H   0  0  0  0  0  0  0  0  0  0  0  0
    6.3596   -1.1727    2.8804 H   0  0  0  0  0  0  0  0  0  0  0  0
  1  2  2  0
  1 32  1  0
  1 33  1  0
  2  3  1  0
  2  4  1  0
  3 34  1  0
  3 35  1  0
  3 36  1  0
  4  5  1  0
  4 37  1  0
  4 38  1  0
  5  6  1  0
  5 39  1  0
  5 40  1  0
  6  7  1  0
  6 41  1  0
  6 42  1  0
  7  8  1  0
  7  9  1  0
  7 43  1  6
  8 44  1  0
  8 45  1  0
  8 46  1  0
  9 30  1  0
  9 10  1  0
  9 47  1  1
 10 11  1  0
 10 48  1  0
 10 49  1  0
 11 12  1  0
 11 50  1  0
 11 51  1  0
 12 30  1  0
 12 13  1  0
 12 52  1  6
 13 27  1  0
 13 14  1  0
 13 53  1  6
 14 15  1  0
 14 16  1  0
 14 54  1  1
 15 55  1  0
 16 17  1  0
 16 56  1  0
 16 57  1  0
 17 25  1  0
 17 18  1  0
 17 58  1  1
 18 22  2  0
 18 19  1  0
 19 20  2  0
 19 59  1  0
 20 21  1  0
 20 60  1  0
 21 22  1  0
 22 23  1  0
 23 24  1  0
 23 61  1  0
 23 62  1  0
 24 25  1  0
 24 63  1  0
 24 64  1  0
 25 26  1  1
 25 27  1  0
 26 65  1  0
 26 66  1  0
 26 67  1  0
 27 28  1  0
 27 68  1  1
 28 29  1  0
 28 69  1  0
 28 70  1  0
 29 30  1  0
 29 71  1  0
 29 72  1  0
 30 31  1  6
 31 73  1  0
 31 74  1  0
 31 75  1  0
M  END
>  <i_m_ct_stereo_status>  (126) 
1

>  <s_m_source_file>  (126) 
/var/tmp/pbs.5076255.sched01/tmpmmp70uc3/38qnywpnyg.sdf

>  <i_m_source_file_index>  (126) 
19

>  <i_lp_mmshare_version>  (126) 
48012

>  <i_f3d_flags>  (126) 
0

>  <s_epik_input>  (126) 
W0NIMl09QyhbQ0gzXSlbQ0gyXVtDSDJdW0NIMl1bQ0BIXShbQ0gzXSlbQ0BIXShbQ0gyXVtDSDJdMSlbQ0BdKFtDSDNdKShbQ0gyXVtDSDJdW0NAQEhdMjMpW0NAQEhdMVtDQEBIXTJbQ0BASF0oW09IXSlbQ0gyXVtDQEhdKFtDQEBdMzRbQ0gzXSljNWMoW0NIMl1bQ0gyXTQpb1tjSF1bY0hdNQ==

>  <s_epik_cmdline>  (126) 
J2VwaWtfcHl0aG9uJywgJy1waHQnLCAnMi4wJywgJy1waCcsICc3LjAnLCAnLXRuJywgJzgnLCAnLW1hJywgJzIwMCcsICctaW1hZScsICc8aW5maWxlLm1hZT4nLCAnLW9tYWUnLCAnPG91dGZpbGUubWFlPic=

>  <r_lp_tautomer_probability>  (126) 
1

>  <r_epik_Ionization_Penalty>  (126) 
1.73441e-06

>  <r_epik_Ionization_Penalty_Charging>  (126) 
0

>  <r_epik_Ionization_Penalty_Neutral>  (126) 
1.73441e-06

>  <r_epik_State_Penalty>  (126) 
-0

>  <r_epik_Charging_Adjusted_Penalty>  (126) 
0

>  <i_epik_Tot_Q>  (126) 
0

>  <i_epik_Tot_abs_Q>  (126) 
0

>  <s_lp_Force_Field>  (126) 
OPLS3e

>  <r_lp_Energy>  (126) 
44.2521

>  <b_lp_Chiralities_Consistent>  (126) 
1

>  <s_lp_Variant>  (126) 
40:0-1

>  <s_i_glide_gridfile>  (126) 
pfpi4k_grid

>  <i_i_glide_lignum>  (126) 
19

>  <i_i_glide_rotatable_bonds>  (126) 
6

>  <r_i_docking_score>  (126) 
-2.32261

>  <r_i_glide_ligand_efficiency>  (126) 
-0.0749229

>  <r_i_glide_ligand_efficiency_sa>  (126) 
-0.235361

>  <r_i_glide_ligand_efficiency_ln>  (126) 
-0.52382

>  <r_i_glide_gscore>  (126) 
-2.32261

>  <r_i_glide_lipo>  (126) 
-0.678296

>  <r_i_glide_hbond>  (126) 
-0.16

>  <r_i_glide_metal>  (126) 
-0

>  <r_i_glide_rewards>  (126) 
-0.513692

>  <r_i_glide_evdw>  (126) 
-19.3424

>  <r_i_glide_ecoul>  (126) 
-3.68881

>  <r_i_glide_erotb>  (126) 
0.549819

>  <r_i_glide_esite>  (126) 
0

>  <r_i_glide_emodel>  (126) 
-25.9757

>  <r_i_glide_energy>  (126) 
-23.0312

>  <r_i_glide_einternal>  (126) 
1.77038

>  <r_i_glide_intrahb_reward>  (126) 
-0

>  <i_i_glide_confnum>  (126) 
4

>  <i_i_glide_posenum>  (126) 
2

>  <r_i_glide_eff_state_penalty>  (126) 
0

>  <ligand_id>  (126) 
40

>  <original_smiles>  (126) 
C=C(C)CCCC(C)C1CCC2C3C(O)CC4c5ccoc5CCC4(C)C3CCC12C

>  <smiles>  (126) 
[H]OC1([H])C([H])([H])C2([H])c3c(oc([H])c3[H])C([H])([H])C([H])([H])C2(C([H])([H])[H])C2([H])C([H])([H])C([H])([H])C3(C([H])([H])[H])C([H])(C([H])(C([H])([H])[H])C([H])([H])C([H])([H])C([H])([H])C(=C([H])[H])C([H])([H])[H])C([H])([H])C([H])([H])C3([H])C12[H]

$$$$
40:0:2
     RDKit          3D

 75 79  0  0  1  0  0  0  0  0999 V2000
    2.4364   -9.9977    5.2976 C   0  0  0  0  0  0  0  0  0  0  0  0
    2.0083  -10.7323    4.2475 C   0  0  0  0  0  0  0  0  0  0  0  0
    0.6949  -11.4837    4.3375 C   0  0  0  0  0  0  0  0  0  0  0  0
    2.7316  -10.9116    2.9000 C   0  0  0  0  0  0  0  0  0  0  0  0
    3.9708  -10.0343    2.6621 C   0  0  0  0  0  0  0  0  0  0  0  0
    3.5964   -8.5492    2.3414 C   0  0  0  0  0  0  0  0  0  0  0  0
    4.7615   -7.5176    2.4213 C   0  0  2  0  0  0  0  0  0  0  0  0
    5.4769   -7.6198    3.8036 C   0  0  0  0  0  0  0  0  0  0  0  0
    4.2306   -6.0731    2.0706 C   0  0  2  0  0  0  0  0  0  0  0  0
    3.8539   -5.8861    0.5813 C   0  0  0  0  0  0  0  0  0  0  0  0
    4.1481   -4.4208    0.2239 C   0  0  0  0  0  0  0  0  0  0  0  0
    4.4677   -3.6776    1.5403 C   0  0  1  0  0  0  0  0  0  0  0  0
    3.1982   -2.9549    2.1163 C   0  0  2  0  0  0  0  0  0  0  0  0
    2.9672   -1.5587    1.4740 C   0  0  1  0  0  0  0  0  0  0  0  0
    3.0186   -1.6228    0.0491 O   0  0  0  0  0  0  0  0  0  0  0  0
    1.6205   -0.9286    1.9208 C   0  0  0  0  0  0  0  0  0  0  0  0
    1.5949   -0.8032    3.4483 C   0  0  1  0  0  0  0  0  0  0  0  0
    0.3944   -0.0782    4.0096 C   0  0  0  0  0  0  0  0  0  0  0  0
   -0.5136    0.8588    3.4917 C   0  0  0  0  0  0  0  0  0  0  0  0
   -1.3852    1.1567    4.5195 C   0  0  0  0  0  0  0  0  0  0  0  0
   -1.0813    0.4402    5.6348 O   0  0  0  0  0  0  0  0  0  0  0  0
    0.0211   -0.2716    5.3153 C   0  0  0  0  0  0  0  0  0  0  0  0
    0.6211   -1.1941    6.3050 C   0  0  0  0  0  0  0  0  0  0  0  0
    1.9046   -1.8549    5.7407 C   0  0  0  0  0  0  0  0  0  0  0  0
    1.8515   -2.1567    4.2010 C   0  0  1  0  0  0  0  0  0  0  0  0
    0.6910   -3.1569    3.9687 C   0  0  0  0  0  0  0  0  0  0  0  0
    3.2086   -2.7309    3.6625 C   0  0  1  0  0  0  0  0  0  0  0  0
    3.7116   -3.9714    4.4095 C   0  0  0  0  0  0  0  0  0  0  0  0
    5.0874   -4.3878    3.8864 C   0  0  0  0  0  0  0  0  0  0  0  0
    5.1021   -4.8123    2.3999 C   0  0  1  0  0  0  0  0  0  0  0  0
    6.5799   -4.9792    1.9275 C   0  0  0  0  0  0  0  0  0  0  0  0
    1.8446   -9.9577    6.2076 H   0  0  0  0  0  0  0  0  0  0  0  0
    3.3541   -9.4296    5.3039 H   0  0  0  0  0  0  0  0  0  0  0  0
    0.8228  -12.5527    4.1576 H   0  0  0  0  0  0  0  0  0  0  0  0
   -0.0014  -11.0834    3.6020 H   0  0  0  0  0  0  0  0  0  0  0  0
    0.2461  -11.3681    5.3247 H   0  0  0  0  0  0  0  0  0  0  0  0
    3.0397  -11.9592    2.8313 H   0  0  0  0  0  0  0  0  0  0  0  0
    2.0257  -10.7276    2.0796 H   0  0  0  0  0  0  0  0  0  0  0  0
    4.5847  -10.2130    3.5423 H   0  0  0  0  0  0  0  0  0  0  0  0
    4.5951  -10.4138    1.8462 H   0  0  0  0  0  0  0  0  0  0  0  0
    3.1471   -8.5163    1.3409 H   0  0  0  0  0  0  0  0  0  0  0  0
    2.7950   -8.2194    3.0052 H   0  0  0  0  0  0  0  0  0  0  0  0
    5.4822   -7.7967    1.6510 H   0  0  0  0  0  0  0  0  0  0  0  0
    4.8143   -7.2641    4.6015 H   0  0  0  0  0  0  0  0  0  0  0  0
    6.4218   -7.0711    3.8373 H   0  0  0  0  0  0  0  0  0  0  0  0
    5.8080   -8.6275    4.0539 H   0  0  0  0  0  0  0  0  0  0  0  0
    3.2862   -5.9390    2.5961 H   0  0  0  0  0  0  0  0  0  0  0  0
    4.4364   -6.5388   -0.0708 H   0  0  0  0  0  0  0  0  0  0  0  0
    2.8003   -6.1255    0.4041 H   0  0  0  0  0  0  0  0  0  0  0  0
    5.0244   -4.3889   -0.4204 H   0  0  0  0  0  0  0  0  0  0  0  0
    3.3360   -3.9887   -0.3611 H   0  0  0  0  0  0  0  0  0  0  0  0
    5.2153   -2.9003    1.3714 H   0  0  0  0  0  0  0  0  0  0  0  0
    2.3730   -3.6080    1.8443 H   0  0  0  0  0  0  0  0  0  0  0  0
    3.7856   -0.8961    1.7737 H   0  0  0  0  0  0  0  0  0  0  0  0
    2.1571   -1.4131   -0.2987 H   0  0  0  0  0  0  0  0  0  0  0  0
    1.4920    0.0529    1.4664 H   0  0  0  0  0  0  0  0  0  0  0  0
    0.7653   -1.5077    1.5812 H   0  0  0  0  0  0  0  0  0  0  0  0
    2.3960   -0.1203    3.7033 H   0  0  0  0  0  0  0  0  0  0  0  0
   -0.5668    1.2888    2.4995 H   0  0  0  0  0  0  0  0  0  0  0  0
   -2.2344    1.8047    4.5958 H   0  0  0  0  0  0  0  0  0  0  0  0
    0.8118   -0.6629    7.2335 H   0  0  0  0  0  0  0  0  0  0  0  0
   -0.1082   -1.9608    6.5162 H   0  0  0  0  0  0  0  0  0  0  0  0
    2.7060   -1.1352    5.8788 H   0  0  0  0  0  0  0  0  0  0  0  0
    2.1595   -2.7281    6.3471 H   0  0  0  0  0  0  0  0  0  0  0  0
    0.8419   -4.0859    4.5150 H   0  0  0  0  0  0  0  0  0  0  0  0
    0.5836   -3.3958    2.9168 H   0  0  0  0  0  0  0  0  0  0  0  0
   -0.2672   -2.7507    4.2873 H   0  0  0  0  0  0  0  0  0  0  0  0
    3.9561   -1.9623    3.8644 H   0  0  0  0  0  0  0  0  0  0  0  0
    3.8357   -3.7355    5.4656 H   0  0  0  0  0  0  0  0  0  0  0  0
    2.9920   -4.7882    4.3552 H   0  0  0  0  0  0  0  0  0  0  0  0
    5.7423   -3.5300    4.0056 H   0  0  0  0  0  0  0  0  0  0  0  0
    5.5078   -5.1417    4.5453 H   0  0  0  0  0  0  0  0  0  0  0  0
    7.0931   -4.0177    1.9607 H   0  0  0  0  0  0  0  0  0  0  0  0
    6.6282   -5.3634    0.9075 H   0  0  0  0  0  0  0  0  0  0  0  0
    7.1838   -5.6441    2.5472 H   0  0  0  0  0  0  0  0  0  0  0  0
  1  2  2  0
  1 32  1  0
  1 33  1  0
  2  3  1  0
  2  4  1  0
  3 34  1  0
  3 35  1  0
  3 36  1  0
  4  5  1  0
  4 37  1  0
  4 38  1  0
  5  6  1  0
  5 39  1  0
  5 40  1  0
  6  7  1  0
  6 41  1  0
  6 42  1  0
  7  8  1  0
  7  9  1  0
  7 43  1  6
  8 44  1  0
  8 45  1  0
  8 46  1  0
  9 30  1  0
  9 10  1  0
  9 47  1  1
 10 11  1  0
 10 48  1  0
 10 49  1  0
 11 12  1  0
 11 50  1  0
 11 51  1  0
 12 30  1  0
 12 13  1  0
 12 52  1  6
 13 27  1  0
 13 14  1  0
 13 53  1  1
 14 15  1  0
 14 16  1  0
 14 54  1  1
 15 55  1  0
 16 17  1  0
 16 56  1  0
 16 57  1  0
 17 25  1  0
 17 18  1  0
 17 58  1  1
 18 22  2  0
 18 19  1  0
 19 20  2  0
 19 59  1  0
 20 21  1  0
 20 60  1  0
 21 22  1  0
 22 23  1  0
 23 24  1  0
 23 61  1  0
 23 62  1  0
 24 25  1  0
 24 63  1  0
 24 64  1  0
 25 26  1  1
 25 27  1  0
 26 65  1  0
 26 66  1  0
 26 67  1  0
 27 28  1  0
 27 68  1  6
 28 29  1  0
 28 69  1  0
 28 70  1  0
 29 30  1  0
 29 71  1  0
 29 72  1  0
 30 31  1  6
 31 73  1  0
 31 74  1  0
 31 75  1  0
M  END
>  <i_m_ct_stereo_status>  (127) 
1

>  <s_m_source_file>  (127) 
/var/tmp/pbs.5076255.sched01/tmpmmp70uc3/38qnywpnyg.sdf

>  <i_m_source_file_index>  (127) 
19

>  <i_lp_mmshare_version>  (127) 
48012

>  <i_f3d_flags>  (127) 
0

>  <s_epik_input>  (127) 
W0NIMl09QyhbQ0gzXSlbQ0gyXVtDSDJdW0NIMl1bQ0BIXShbQ0gzXSlbQ0BIXShbQ0gyXVtDSDJdMSlbQ0BdKFtDSDNdKShbQ0gyXVtDSDJdW0NAQEhdMjMpW0NAQEhdMVtDQEBIXTJbQ0BASF0oW09IXSlbQ0gyXVtDQEhdKFtDQEBdMzRbQ0gzXSljNWMoW0NIMl1bQ0gyXTQpb1tjSF1bY0hdNQ==

>  <s_epik_cmdline>  (127) 
J2VwaWtfcHl0aG9uJywgJy1waHQnLCAnMi4wJywgJy1waCcsICc3LjAnLCAnLXRuJywgJzgnLCAnLW1hJywgJzIwMCcsICctaW1hZScsICc8aW5maWxlLm1hZT4nLCAnLW9tYWUnLCAnPG91dGZpbGUubWFlPic=

>  <r_lp_tautomer_probability>  (127) 
1

>  <r_epik_Ionization_Penalty>  (127) 
1.73441e-06

>  <r_epik_Ionization_Penalty_Charging>  (127) 
0

>  <r_epik_Ionization_Penalty_Neutral>  (127) 
1.73441e-06

>  <r_epik_State_Penalty>  (127) 
-0

>  <r_epik_Charging_Adjusted_Penalty>  (127) 
0

>  <i_epik_Tot_Q>  (127) 
0

>  <i_epik_Tot_abs_Q>  (127) 
0

>  <s_lp_Force_Field>  (127) 
OPLS3e

>  <r_lp_Energy>  (127) 
44.2521

>  <b_lp_Chiralities_Consistent>  (127) 
1

>  <s_lp_Variant>  (127) 
40:0-1

>  <s_i_glide_gridfile>  (127) 
pfpi4k_grid

>  <i_i_glide_lignum>  (127) 
19

>  <i_i_glide_rotatable_bonds>  (127) 
6

>  <r_i_docking_score>  (127) 
-2.16392

>  <r_i_glide_ligand_efficiency>  (127) 
-0.0698039

>  <r_i_glide_ligand_efficiency_sa>  (127) 
-0.219281

>  <r_i_glide_ligand_efficiency_ln>  (127) 
-0.488031

>  <r_i_glide_gscore>  (127) 
-2.16392

>  <r_i_glide_lipo>  (127) 
-0.206987

>  <r_i_glide_hbond>  (127) 
-0.16

>  <r_i_glide_metal>  (127) 
-0

>  <r_i_glide_rewards>  (127) 
-0.513692

>  <r_i_glide_evdw>  (127) 
-19.0661

>  <r_i_glide_ecoul>  (127) 
-5.86504

>  <r_i_glide_erotb>  (127) 
0.549819

>  <r_i_glide_esite>  (127) 
0

>  <r_i_glide_emodel>  (127) 
-25.798

>  <r_i_glide_energy>  (127) 
-24.9311

>  <r_i_glide_einternal>  (127) 
4.20912

>  <r_i_glide_intrahb_reward>  (127) 
-0

>  <i_i_glide_confnum>  (127) 
4

>  <i_i_glide_posenum>  (127) 
1

>  <r_i_glide_eff_state_penalty>  (127) 
0

>  <ligand_id>  (127) 
40

>  <original_smiles>  (127) 
C=C(C)CCCC(C)C1CCC2C3C(O)CC4c5ccoc5CCC4(C)C3CCC12C

>  <smiles>  (127) 
[H]OC1([H])C([H])([H])C2([H])c3c(oc([H])c3[H])C([H])([H])C([H])([H])C2(C([H])([H])[H])C2([H])C([H])([H])C([H])([H])C3(C([H])([H])[H])C([H])(C([H])(C([H])([H])[H])C([H])([H])C([H])([H])C([H])([H])C(=C([H])[H])C([H])([H])[H])C([H])([H])C([H])([H])C3([H])C12[H]

$$$$
42:0:0
     RDKit          3D

 54 59  0  0  1  0  0  0  0  0999 V2000
   -1.4591   -9.4073    2.4818 C   0  0  0  0  0  0  0  0  0  0  0  0
   -0.2263   -9.3033    3.4016 C   0  0  0  0  0  0  0  0  0  0  0  0
   -0.3158   -8.0677    4.3201 C   0  0  0  0  0  0  0  0  0  0  0  0
   -0.1680   -6.7603    3.5146 C   0  0  0  0  0  0  0  0  0  0  0  0
    1.0752   -6.7919    2.7127 N   0  0  0  0  0  0  0  0  0  0  0  0
    2.0109   -5.8232    2.7990 C   0  0  0  0  0  0  0  0  0  0  0  0
    1.8207   -4.8009    3.4738 O   0  0  0  0  0  0  0  0  0  0  0  0
    3.3631   -5.9641    2.0658 C   0  0  0  0  0  0  0  0  0  0  0  0
    3.6243   -4.8333    1.1696 N   0  0  0  0  0  0  0  0  0  0  0  0
    2.8694   -4.5112    0.0928 C   0  0  0  0  0  0  0  0  0  0  0  0
    1.8178   -5.0699   -0.2172 O   0  0  0  0  0  0  0  0  0  0  0  0
    3.4336   -3.3724   -0.7713 C   0  0  2  0  0  0  0  0  0  0  0  0
    4.8911   -3.7310   -1.2189 C   0  0  1  0  0  0  0  0  0  0  0  0
    5.3971   -2.3694   -1.7621 C   0  0  1  0  0  0  0  0  0  0  0  0
    4.7084   -1.9222   -3.0408 C   0  0  0  0  0  0  0  0  0  0  0  0
    3.9444   -0.8292   -3.1947 C   0  0  0  0  0  0  0  0  0  0  0  0
    3.3012   -0.4238   -4.5041 C   0  0  0  0  0  0  0  0  0  0  0  0
    3.4961    0.9538   -4.7265 O   0  0  0  0  0  0  0  0  0  0  0  0
    5.1068   -1.5946   -0.4870 C   0  0  1  0  0  0  0  0  0  0  0  0
    3.7693   -2.1376    0.0916 C   0  0  2  0  0  0  0  0  0  0  0  0
    4.5351   -2.5804    1.3571 C   0  0  2  0  0  0  0  0  0  0  0  0
    5.8172   -2.4181    0.5718 C   0  0  1  0  0  0  0  0  0  0  0  0
    5.6890   -3.8795    0.1228 C   0  0  1  0  0  0  0  0  0  0  0  0
    4.8630   -4.0858    1.4342 C   0  0  2  0  0  0  0  0  0  0  0  0
    1.1525   -7.9330    1.7806 C   0  0  0  0  0  0  0  0  0  0  0  0
    1.0646   -9.2443    2.5759 C   0  0  0  0  0  0  0  0  0  0  0  0
   -1.5557   -8.5588    1.8076 H   0  0  0  0  0  0  0  0  0  0  0  0
   -2.3825   -9.4513    3.0592 H   0  0  0  0  0  0  0  0  0  0  0  0
   -1.3948  -10.2856    1.8440 H   0  0  0  0  0  0  0  0  0  0  0  0
   -0.1881  -10.1976    4.0289 H   0  0  0  0  0  0  0  0  0  0  0  0
   -1.2652   -8.0813    4.8685 H   0  0  0  0  0  0  0  0  0  0  0  0
    0.4690   -8.1136    5.0794 H   0  0  0  0  0  0  0  0  0  0  0  0
   -1.0253   -6.6541    2.8551 H   0  0  0  0  0  0  0  0  0  0  0  0
   -0.2257   -5.9170    4.2031 H   0  0  0  0  0  0  0  0  0  0  0  0
    4.1361   -6.0564    2.8413 H   0  0  0  0  0  0  0  0  0  0  0  0
    3.4780   -6.8316    1.4407 H   0  0  0  0  0  0  0  0  0  0  0  0
    2.7691   -3.1375   -1.6038 H   0  0  0  0  0  0  0  0  0  0  0  0
    4.9831   -4.5794   -1.9039 H   0  0  0  0  0  0  0  0  0  0  0  0
    6.4687   -2.4078   -1.9623 H   0  0  0  0  0  0  0  0  0  0  0  0
    4.8731   -2.5698   -3.8909 H   0  0  0  0  0  0  0  0  0  0  0  0
    3.7520   -0.1914   -2.3457 H   0  0  0  0  0  0  0  0  0  0  0  0
    3.7282   -0.9899   -5.3319 H   0  0  0  0  0  0  0  0  0  0  0  0
    2.2332   -0.6349   -4.4779 H   0  0  0  0  0  0  0  0  0  0  0  0
    3.0137    1.4362   -4.0618 H   0  0  0  0  0  0  0  0  0  0  0  0
    5.2547   -0.5175   -0.4320 H   0  0  0  0  0  0  0  0  0  0  0  0
    2.9848   -1.4028    0.2667 H   0  0  0  0  0  0  0  0  0  0  0  0
    4.4393   -2.0070    2.2797 H   0  0  0  0  0  0  0  0  0  0  0  0
    6.7103   -2.0701    1.0860 H   0  0  0  0  0  0  0  0  0  0  0  0
    6.6493   -4.3961    0.0791 H   0  0  0  0  0  0  0  0  0  0  0  0
    5.4741   -4.3749    2.2913 H   0  0  0  0  0  0  0  0  0  0  0  0
    0.3284   -7.8489    1.0660 H   0  0  0  0  0  0  0  0  0  0  0  0
    2.0286   -8.0187    1.1659 H   0  0  0  0  0  0  0  0  0  0  0  0
    1.9285   -9.3281    3.2377 H   0  0  0  0  0  0  0  0  0  0  0  0
    1.1184  -10.0938    1.9007 H   0  0  0  0  0  0  0  0  0  0  0  0
  1  2  1  0
  1 27  1  0
  1 28  1  0
  1 29  1  0
  2 26  1  0
  2  3  1  0
  2 30  1  0
  3  4  1  0
  3 31  1  0
  3 32  1  0
  4  5  1  0
  4 33  1  0
  4 34  1  0
  5  6  1  0
  5 25  1  0
  6  7  2  0
  6  8  1  0
  8  9  1  0
  8 35  1  0
  8 36  1  0
  9 24  1  0
  9 10  1  0
 10 11  2  0
 10 12  1  0
 12 20  1  0
 12 13  1  0
 12 37  1  6
 13 23  1  0
 13 14  1  0
 13 38  1  6
 14 15  1  0
 14 19  1  0
 14 39  1  6
 15 16  2  3
 15 40  1  0
 16 17  1  0
 16 41  1  0
 17 18  1  0
 17 42  1  0
 17 43  1  0
 18 44  1  0
 19 22  1  0
 19 20  1  0
 19 45  1  6
 20 21  1  0
 20 46  1  1
 21 24  1  0
 21 22  1  0
 21 47  1  1
 22 23  1  0
 22 48  1  1
 23 24  1  0
 23 49  1  6
 24 50  1  1
 25 26  1  0
 25 51  1  0
 25 52  1  0
 26 53  1  0
 26 54  1  0
M  END
>  <i_m_ct_stereo_status>  (128) 
1

>  <s_m_source_file>  (128) 
/var/tmp/pbs.5076255.sched01/tmpmmp70uc3/38qnywpnyg.sdf

>  <i_m_source_file_index>  (128) 
21

>  <i_lp_mmshare_version>  (128) 
48012

>  <i_f3d_flags>  (128) 
0

>  <s_epik_input>  (128) 
W0NIM11bQ0hdMVtDSDJdW0NIMl1OKFtDSDJdW0NIMl0xKUMoPU8pW0NIMl1OKEMyPU8pW0NAQEhdM1tDQEBIXTRbQ0BIXTVbQ0BASF0oW0NAQEhdNFtDQEBIXTNbQ0BIXTZbQ0BASF0yNSlbQ0BASF02L1tDSF09W0NIXS9bQ0gyXVtPSF0=

>  <s_epik_cmdline>  (128) 
J2VwaWtfcHl0aG9uJywgJy1waHQnLCAnMi4wJywgJy1waCcsICc3LjAnLCAnLXRuJywgJzgnLCAnLW1hJywgJzIwMCcsICctaW1hZScsICc8aW5maWxlLm1hZT4nLCAnLW9tYWUnLCAnPG91dGZpbGUubWFlPic=

>  <r_lp_tautomer_probability>  (128) 
1

>  <r_epik_Ionization_Penalty>  (128) 
2.88552e-07

>  <r_epik_Ionization_Penalty_Charging>  (128) 
0

>  <r_epik_Ionization_Penalty_Neutral>  (128) 
2.88552e-07

>  <r_epik_State_Penalty>  (128) 
-0

>  <r_epik_Charging_Adjusted_Penalty>  (128) 
0

>  <i_epik_Tot_Q>  (128) 
0

>  <i_epik_Tot_abs_Q>  (128) 
0

>  <s_lp_Force_Field>  (128) 
OPLS3e

>  <r_lp_Energy>  (128) 
81.3026

>  <b_lp_Chiralities_Consistent>  (128) 
1

>  <s_lp_Variant>  (128) 
42:0-1

>  <s_i_glide_gridfile>  (128) 
pfpi4k_grid

>  <i_i_glide_lignum>  (128) 
21

>  <i_i_glide_rotatable_bonds>  (128) 
6

>  <r_i_docking_score>  (128) 
-4.01558

>  <r_i_glide_ligand_efficiency>  (128) 
-0.154446

>  <r_i_glide_ligand_efficiency_sa>  (128) 
-0.457544

>  <r_i_glide_ligand_efficiency_ln>  (128) 
-0.943047

>  <r_i_glide_gscore>  (128) 
-4.01558

>  <r_i_glide_lipo>  (128) 
-1.04792

>  <r_i_glide_hbond>  (128) 
-0.370259

>  <r_i_glide_metal>  (128) 
-0

>  <r_i_glide_rewards>  (128) 
-0.987147

>  <r_i_glide_evdw>  (128) 
-30.5661

>  <r_i_glide_ecoul>  (128) 
-5.01012

>  <r_i_glide_erotb>  (128) 
0.75288

>  <r_i_glide_esite>  (128) 
-0.0833132

>  <r_i_glide_emodel>  (128) 
-43.1087

>  <r_i_glide_energy>  (128) 
-35.5762

>  <r_i_glide_einternal>  (128) 
2.86142

>  <r_i_glide_intrahb_reward>  (128) 
-0

>  <i_i_glide_confnum>  (128) 
3

>  <i_i_glide_posenum>  (128) 
25

>  <r_i_glide_eff_state_penalty>  (128) 
0

>  <ligand_id>  (128) 
42

>  <original_smiles>  (128) 
CC1CCN(C(=O)CN2C(=O)C3C4C(C=CCO)C5C3C3C5C4C32)CC1

>  <smiles>  (128) 
[H]OC([H])([H])C([H])=C([H])C1([H])C2([H])C3([H])C(=O)N(C([H])([H])C(=O)N4C([H])([H])C([H])([H])C([H])(C([H])([H])[H])C([H])([H])C4([H])[H])C4([H])C2([H])C2([H])C1([H])C3([H])C42[H]

$$$$
42:0:1
     RDKit          3D

 54 59  0  0  1  0  0  0  0  0999 V2000
   -1.8720   -9.0519    3.2743 C   0  0  0  0  0  0  0  0  0  0  0  0
   -1.5244   -7.6086    2.8986 C   0  0  0  0  0  0  0  0  0  0  0  0
   -0.5339   -7.5769    1.7300 C   0  0  0  0  0  0  0  0  0  0  0  0
    0.8479   -8.1125    2.1489 C   0  0  0  0  0  0  0  0  0  0  0  0
    1.3630   -7.3631    3.3102 N   0  0  0  0  0  0  0  0  0  0  0  0
    2.5792   -6.7750    3.3533 C   0  0  0  0  0  0  0  0  0  0  0  0
    2.9235   -6.0559    4.2974 O   0  0  0  0  0  0  0  0  0  0  0  0
    3.6173   -7.0497    2.2448 C   0  0  0  0  0  0  0  0  0  0  0  0
    3.8747   -5.8431    1.4445 N   0  0  0  0  0  0  0  0  0  0  0  0
    3.0313   -5.3325    0.5196 C   0  0  0  0  0  0  0  0  0  0  0  0
    1.8993   -5.7741    0.2680 O   0  0  0  0  0  0  0  0  0  0  0  0
    3.5818   -4.1258   -0.2632 C   0  0  2  0  0  0  0  0  0  0  0  0
    4.9764   -4.4935   -0.8773 C   0  0  1  0  0  0  0  0  0  0  0  0
    5.4955   -3.1020   -1.3165 C   0  0  1  0  0  0  0  0  0  0  0  0
    4.7238   -2.4818   -2.4666 C   0  0  0  0  0  0  0  0  0  0  0  0
    4.0717   -1.3089   -2.4503 C   0  0  0  0  0  0  0  0  0  0  0  0
    3.3373   -0.7505   -3.6483 C   0  0  0  0  0  0  0  0  0  0  0  0
    3.8118    0.5485   -3.9531 O   0  0  0  0  0  0  0  0  0  0  0  0
    5.3551   -2.4647    0.0624 C   0  0  1  0  0  0  0  0  0  0  0  0
    4.0514   -3.0106    0.7004 C   0  0  2  0  0  0  0  0  0  0  0  0
    4.9026   -3.6291    1.8306 C   0  0  2  0  0  0  0  0  0  0  0  0
    6.1175   -3.4352    0.9551 C   0  0  1  0  0  0  0  0  0  0  0  0
    5.8831   -4.8269    0.3577 C   0  0  1  0  0  0  0  0  0  0  0  0
    5.1656   -5.1529    1.7017 C   0  0  2  0  0  0  0  0  0  0  0  0
    0.4574   -7.3644    4.4834 C   0  0  0  0  0  0  0  0  0  0  0  0
   -0.9411   -6.8510    4.1047 C   0  0  0  0  0  0  0  0  0  0  0  0
   -1.0135   -9.6140    3.6419 H   0  0  0  0  0  0  0  0  0  0  0  0
   -2.2730   -9.6080    2.4278 H   0  0  0  0  0  0  0  0  0  0  0  0
   -2.5981   -9.0611    4.0810 H   0  0  0  0  0  0  0  0  0  0  0  0
   -2.4476   -7.1217    2.5802 H   0  0  0  0  0  0  0  0  0  0  0  0
   -0.9384   -8.1541    0.8986 H   0  0  0  0  0  0  0  0  0  0  0  0
   -0.4349   -6.5557    1.3636 H   0  0  0  0  0  0  0  0  0  0  0  0
    0.7902   -9.1689    2.4095 H   0  0  0  0  0  0  0  0  0  0  0  0
    1.4708   -8.0564    1.2670 H   0  0  0  0  0  0  0  0  0  0  0  0
    4.5319   -7.3726    2.7427 H   0  0  0  0  0  0  0  0  0  0  0  0
    3.3319   -7.8559    1.5874 H   0  0  0  0  0  0  0  0  0  0  0  0
    2.8600   -3.7714   -0.9985 H   0  0  0  0  0  0  0  0  0  0  0  0
    4.9753   -5.2584   -1.6541 H   0  0  0  0  0  0  0  0  0  0  0  0
    6.5420   -3.1611   -1.6245 H   0  0  0  0  0  0  0  0  0  0  0  0
    4.7158   -3.0662   -3.3727 H   0  0  0  0  0  0  0  0  0  0  0  0
    4.0364   -0.7088   -1.5496 H   0  0  0  0  0  0  0  0  0  0  0  0
    3.4627   -1.3897   -4.5233 H   0  0  0  0  0  0  0  0  0  0  0  0
    2.2792   -0.7031   -3.4166 H   0  0  0  0  0  0  0  0  0  0  0  0
    3.2508    1.1771   -3.5131 H   0  0  0  0  0  0  0  0  0  0  0  0
    5.5727   -1.4086    0.2147 H   0  0  0  0  0  0  0  0  0  0  0  0
    3.3233   -2.2673    1.0231 H   0  0  0  0  0  0  0  0  0  0  0  0
    4.9339   -3.1527    2.8113 H   0  0  0  0  0  0  0  0  0  0  0  0
    7.0706   -3.1833    1.4140 H   0  0  0  0  0  0  0  0  0  0  0  0
    6.8070   -5.3752    0.1665 H   0  0  0  0  0  0  0  0  0  0  0  0
    5.8215   -5.5568    2.4690 H   0  0  0  0  0  0  0  0  0  0  0  0
    0.3947   -8.3772    4.8713 H   0  0  0  0  0  0  0  0  0  0  0  0
    0.8253   -6.7652    5.3187 H   0  0  0  0  0  0  0  0  0  0  0  0
   -0.8372   -5.7949    3.8749 H   0  0  0  0  0  0  0  0  0  0  0  0
   -1.6279   -6.9077    4.9536 H   0  0  0  0  0  0  0  0  0  0  0  0
  1  2  1  0
  1 27  1  0
  1 28  1  0
  1 29  1  0
  2 26  1  0
  2  3  1  0
  2 30  1  0
  3  4  1  0
  3 31  1  0
  3 32  1  0
  4  5  1  0
  4 33  1  0
  4 34  1  0
  5  6  1  0
  5 25  1  0
  6  7  2  0
  6  8  1  0
  8  9  1  0
  8 35  1  0
  8 36  1  0
  9 24  1  0
  9 10  1  0
 10 11  2  0
 10 12  1  0
 12 20  1  0
 12 13  1  0
 12 37  1  6
 13 23  1  0
 13 14  1  0
 13 38  1  6
 14 15  1  0
 14 19  1  0
 14 39  1  6
 15 16  2  3
 15 40  1  0
 16 17  1  0
 16 41  1  0
 17 18  1  0
 17 42  1  0
 17 43  1  0
 18 44  1  0
 19 22  1  0
 19 20  1  0
 19 45  1  6
 20 21  1  0
 20 46  1  1
 21 24  1  0
 21 22  1  0
 21 47  1  1
 22 23  1  0
 22 48  1  1
 23 24  1  0
 23 49  1  6
 24 50  1  1
 25 26  1  0
 25 51  1  0
 25 52  1  0
 26 53  1  0
 26 54  1  0
M  END
>  <i_m_ct_stereo_status>  (129) 
1

>  <s_m_source_file>  (129) 
/var/tmp/pbs.5076255.sched01/tmpmmp70uc3/38qnywpnyg.sdf

>  <i_m_source_file_index>  (129) 
21

>  <i_lp_mmshare_version>  (129) 
48012

>  <i_f3d_flags>  (129) 
0

>  <s_epik_input>  (129) 
W0NIM11bQ0hdMVtDSDJdW0NIMl1OKFtDSDJdW0NIMl0xKUMoPU8pW0NIMl1OKEMyPU8pW0NAQEhdM1tDQEBIXTRbQ0BIXTVbQ0BASF0oW0NAQEhdNFtDQEBIXTNbQ0BIXTZbQ0BASF0yNSlbQ0BASF02L1tDSF09W0NIXS9bQ0gyXVtPSF0=

>  <s_epik_cmdline>  (129) 
J2VwaWtfcHl0aG9uJywgJy1waHQnLCAnMi4wJywgJy1waCcsICc3LjAnLCAnLXRuJywgJzgnLCAnLW1hJywgJzIwMCcsICctaW1hZScsICc8aW5maWxlLm1hZT4nLCAnLW9tYWUnLCAnPG91dGZpbGUubWFlPic=

>  <r_lp_tautomer_probability>  (129) 
1

>  <r_epik_Ionization_Penalty>  (129) 
2.88552e-07

>  <r_epik_Ionization_Penalty_Charging>  (129) 
0

>  <r_epik_Ionization_Penalty_Neutral>  (129) 
2.88552e-07

>  <r_epik_State_Penalty>  (129) 
-0

>  <r_epik_Charging_Adjusted_Penalty>  (129) 
0

>  <i_epik_Tot_Q>  (129) 
0

>  <i_epik_Tot_abs_Q>  (129) 
0

>  <s_lp_Force_Field>  (129) 
OPLS3e

>  <r_lp_Energy>  (129) 
81.3026

>  <b_lp_Chiralities_Consistent>  (129) 
1

>  <s_lp_Variant>  (129) 
42:0-1

>  <s_i_glide_gridfile>  (129) 
pfpi4k_grid

>  <i_i_glide_lignum>  (129) 
21

>  <i_i_glide_rotatable_bonds>  (129) 
6

>  <r_i_docking_score>  (129) 
-3.733

>  <r_i_glide_ligand_efficiency>  (129) 
-0.143577

>  <r_i_glide_ligand_efficiency_sa>  (129) 
-0.425346

>  <r_i_glide_ligand_efficiency_ln>  (129) 
-0.876683

>  <r_i_glide_gscore>  (129) 
-3.733

>  <r_i_glide_lipo>  (129) 
-0.694539

>  <r_i_glide_hbond>  (129) 
-0.358972

>  <r_i_glide_metal>  (129) 
-0

>  <r_i_glide_rewards>  (129) 
-1.03103

>  <r_i_glide_evdw>  (129) 
-26.4277

>  <r_i_glide_ecoul>  (129) 
-6.91018

>  <r_i_glide_erotb>  (129) 
0.75288

>  <r_i_glide_esite>  (129) 
-0.0434282

>  <r_i_glide_emodel>  (129) 
-40.4865

>  <r_i_glide_energy>  (129) 
-33.3379

>  <r_i_glide_einternal>  (129) 
2.28241

>  <r_i_glide_intrahb_reward>  (129) 
-0

>  <i_i_glide_confnum>  (129) 
3

>  <i_i_glide_posenum>  (129) 
10

>  <r_i_glide_eff_state_penalty>  (129) 
0

>  <ligand_id>  (129) 
42

>  <original_smiles>  (129) 
CC1CCN(C(=O)CN2C(=O)C3C4C(C=CCO)C5C3C3C5C4C32)CC1

>  <smiles>  (129) 
[H]OC([H])([H])C([H])=C([H])C1([H])C2([H])C3([H])C(=O)N(C([H])([H])C(=O)N4C([H])([H])C([H])([H])C([H])(C([H])([H])[H])C([H])([H])C4([H])[H])C4([H])C2([H])C2([H])C1([H])C3([H])C42[H]

$$$$
42:0:2
     RDKit          3D

 54 59  0  0  1  0  0  0  0  0999 V2000
   -0.0346   -9.4402    5.4263 C   0  0  0  0  0  0  0  0  0  0  0  0
   -0.3947   -8.8648    4.0432 C   0  0  0  0  0  0  0  0  0  0  0  0
    0.7687   -9.0304    3.0520 C   0  0  0  0  0  0  0  0  0  0  0  0
    1.9608   -8.1380    3.4453 C   0  0  0  0  0  0  0  0  0  0  0  0
    1.5317   -6.7275    3.5457 N   0  0  0  0  0  0  0  0  0  0  0  0
    2.1435   -5.6962    2.9203 C   0  0  0  0  0  0  0  0  0  0  0  0
    1.7653   -4.5312    3.0672 O   0  0  0  0  0  0  0  0  0  0  0  0
    3.3690   -5.9816    2.0280 C   0  0  0  0  0  0  0  0  0  0  0  0
    3.6767   -4.8841    1.1091 N   0  0  0  0  0  0  0  0  0  0  0  0
    2.8870   -4.5263    0.0732 C   0  0  0  0  0  0  0  0  0  0  0  0
    1.8138   -5.0600   -0.1973 O   0  0  0  0  0  0  0  0  0  0  0  0
    3.4583   -3.3889   -0.7931 C   0  0  2  0  0  0  0  0  0  0  0  0
    4.8974   -3.7793   -1.2733 C   0  0  1  0  0  0  0  0  0  0  0  0
    5.4117   -2.4270   -1.8280 C   0  0  1  0  0  0  0  0  0  0  0  0
    4.7006   -1.9603   -3.0857 C   0  0  0  0  0  0  0  0  0  0  0  0
    3.9648   -0.8467   -3.2228 C   0  0  0  0  0  0  0  0  0  0  0  0
    3.2987   -0.4266   -4.5146 C   0  0  0  0  0  0  0  0  0  0  0  0
    3.4862    0.9522   -4.7304 O   0  0  0  0  0  0  0  0  0  0  0  0
    5.1681   -1.6519   -0.5412 C   0  0  1  0  0  0  0  0  0  0  0  0
    3.8346   -2.1649    0.0674 C   0  0  2  0  0  0  0  0  0  0  0  0
    4.6262   -2.6291    1.3124 C   0  0  2  0  0  0  0  0  0  0  0  0
    5.8906   -2.4907    0.5024 C   0  0  1  0  0  0  0  0  0  0  0  0
    5.7304   -3.9467    0.0437 C   0  0  1  0  0  0  0  0  0  0  0  0
    4.9261   -4.1476    1.3701 C   0  0  2  0  0  0  0  0  0  0  0  0
    0.4175   -6.4984    4.4894 C   0  0  0  0  0  0  0  0  0  0  0  0
   -0.7947   -7.3813    4.1317 C   0  0  0  0  0  0  0  0  0  0  0  0
    0.8013   -8.9238    5.8959 H   0  0  0  0  0  0  0  0  0  0  0  0
    0.2464  -10.4901    5.3521 H   0  0  0  0  0  0  0  0  0  0  0  0
   -0.8763   -9.3686    6.1119 H   0  0  0  0  0  0  0  0  0  0  0  0
   -1.2489   -9.4281    3.6597 H   0  0  0  0  0  0  0  0  0  0  0  0
    1.0809  -10.0749    3.0101 H   0  0  0  0  0  0  0  0  0  0  0  0
    0.4352   -8.7795    2.0421 H   0  0  0  0  0  0  0  0  0  0  0  0
    2.3748   -8.4449    4.4056 H   0  0  0  0  0  0  0  0  0  0  0  0
    2.7543   -8.3397    2.7282 H   0  0  0  0  0  0  0  0  0  0  0  0
    4.2189   -6.2410    2.6612 H   0  0  0  0  0  0  0  0  0  0  0  0
    3.1721   -6.8329    1.3788 H   0  0  0  0  0  0  0  0  0  0  0  0
    2.7730   -3.1391   -1.6050 H   0  0  0  0  0  0  0  0  0  0  0  0
    4.9499   -4.6255   -1.9609 H   0  0  0  0  0  0  0  0  0  0  0  0
    6.4797   -2.4892   -2.0592 H   0  0  0  0  0  0  0  0  0  0  0  0
    4.8166   -2.6193   -3.9289 H   0  0  0  0  0  0  0  0  0  0  0  0
    3.8162   -0.1919   -2.3748 H   0  0  0  0  0  0  0  0  0  0  0  0
    3.7109   -0.9838   -5.3587 H   0  0  0  0  0  0  0  0  0  0  0  0
    2.2297   -0.6415   -4.4707 H   0  0  0  0  0  0  0  0  0  0  0  0
    3.0085    1.4310   -4.0583 H   0  0  0  0  0  0  0  0  0  0  0  0
    5.3493   -0.5758   -0.4903 H   0  0  0  0  0  0  0  0  0  0  0  0
    3.0709   -1.4099    0.2594 H   0  0  0  0  0  0  0  0  0  0  0  0
    4.5774   -2.0451    2.2359 H   0  0  0  0  0  0  0  0  0  0  0  0
    6.8043   -2.1616    0.9995 H   0  0  0  0  0  0  0  0  0  0  0  0
    6.6802   -4.4855   -0.0220 H   0  0  0  0  0  0  0  0  0  0  0  0
    5.5424   -4.4486    2.2193 H   0  0  0  0  0  0  0  0  0  0  0  0
    0.7689   -6.7179    5.4964 H   0  0  0  0  0  0  0  0  0  0  0  0
    0.0851   -5.4595    4.5302 H   0  0  0  0  0  0  0  0  0  0  0  0
   -1.2135   -7.0582    3.1767 H   0  0  0  0  0  0  0  0  0  0  0  0
   -1.5879   -7.2501    4.8695 H   0  0  0  0  0  0  0  0  0  0  0  0
  1  2  1  0
  1 27  1  0
  1 28  1  0
  1 29  1  0
  2 26  1  0
  2  3  1  0
  2 30  1  0
  3  4  1  0
  3 31  1  0
  3 32  1  0
  4  5  1  0
  4 33  1  0
  4 34  1  0
  5  6  1  0
  5 25  1  0
  6  7  2  0
  6  8  1  0
  8  9  1  0
  8 35  1  0
  8 36  1  0
  9 24  1  0
  9 10  1  0
 10 11  2  0
 10 12  1  0
 12 20  1  0
 12 13  1  0
 12 37  1  6
 13 23  1  0
 13 14  1  0
 13 38  1  6
 14 15  1  0
 14 19  1  0
 14 39  1  6
 15 16  2  3
 15 40  1  0
 16 17  1  0
 16 41  1  0
 17 18  1  0
 17 42  1  0
 17 43  1  0
 18 44  1  0
 19 22  1  0
 19 20  1  0
 19 45  1  6
 20 21  1  0
 20 46  1  1
 21 24  1  0
 21 22  1  0
 21 47  1  1
 22 23  1  0
 22 48  1  1
 23 24  1  0
 23 49  1  6
 24 50  1  1
 25 26  1  0
 25 51  1  0
 25 52  1  0
 26 53  1  0
 26 54  1  0
M  END
>  <i_m_ct_stereo_status>  (130) 
1

>  <s_m_source_file>  (130) 
/var/tmp/pbs.5076255.sched01/tmpmmp70uc3/38qnywpnyg.sdf

>  <i_m_source_file_index>  (130) 
21

>  <i_lp_mmshare_version>  (130) 
48012

>  <i_f3d_flags>  (130) 
0

>  <s_epik_input>  (130) 
W0NIM11bQ0hdMVtDSDJdW0NIMl1OKFtDSDJdW0NIMl0xKUMoPU8pW0NIMl1OKEMyPU8pW0NAQEhdM1tDQEBIXTRbQ0BIXTVbQ0BASF0oW0NAQEhdNFtDQEBIXTNbQ0BIXTZbQ0BASF0yNSlbQ0BASF02L1tDSF09W0NIXS9bQ0gyXVtPSF0=

>  <s_epik_cmdline>  (130) 
J2VwaWtfcHl0aG9uJywgJy1waHQnLCAnMi4wJywgJy1waCcsICc3LjAnLCAnLXRuJywgJzgnLCAnLW1hJywgJzIwMCcsICctaW1hZScsICc8aW5maWxlLm1hZT4nLCAnLW9tYWUnLCAnPG91dGZpbGUubWFlPic=

>  <r_lp_tautomer_probability>  (130) 
1

>  <r_epik_Ionization_Penalty>  (130) 
2.88552e-07

>  <r_epik_Ionization_Penalty_Charging>  (130) 
0

>  <r_epik_Ionization_Penalty_Neutral>  (130) 
2.88552e-07

>  <r_epik_State_Penalty>  (130) 
-0

>  <r_epik_Charging_Adjusted_Penalty>  (130) 
0

>  <i_epik_Tot_Q>  (130) 
0

>  <i_epik_Tot_abs_Q>  (130) 
0

>  <s_lp_Force_Field>  (130) 
OPLS3e

>  <r_lp_Energy>  (130) 
81.3026

>  <b_lp_Chiralities_Consistent>  (130) 
1

>  <s_lp_Variant>  (130) 
42:0-1

>  <s_i_glide_gridfile>  (130) 
pfpi4k_grid

>  <i_i_glide_lignum>  (130) 
21

>  <i_i_glide_rotatable_bonds>  (130) 
6

>  <r_i_docking_score>  (130) 
-3.57656

>  <r_i_glide_ligand_efficiency>  (130) 
-0.13756

>  <r_i_glide_ligand_efficiency_sa>  (130) 
-0.407521

>  <r_i_glide_ligand_efficiency_ln>  (130) 
-0.839943

>  <r_i_glide_gscore>  (130) 
-3.57656

>  <r_i_glide_lipo>  (130) 
-0.778805

>  <r_i_glide_hbond>  (130) 
-0.372258

>  <r_i_glide_metal>  (130) 
-0

>  <r_i_glide_rewards>  (130) 
-0.988114

>  <r_i_glide_evdw>  (130) 
-27.519

>  <r_i_glide_ecoul>  (130) 
-5.0676

>  <r_i_glide_erotb>  (130) 
0.75288

>  <r_i_glide_esite>  (130) 
-0.0541708

>  <r_i_glide_emodel>  (130) 
-40.2474

>  <r_i_glide_energy>  (130) 
-32.5866

>  <r_i_glide_einternal>  (130) 
0.935966

>  <r_i_glide_intrahb_reward>  (130) 
-0

>  <i_i_glide_confnum>  (130) 
3

>  <i_i_glide_posenum>  (130) 
20

>  <r_i_glide_eff_state_penalty>  (130) 
0

>  <ligand_id>  (130) 
42

>  <original_smiles>  (130) 
CC1CCN(C(=O)CN2C(=O)C3C4C(C=CCO)C5C3C3C5C4C32)CC1

>  <smiles>  (130) 
[H]OC([H])([H])C([H])=C([H])C1([H])C2([H])C3([H])C(=O)N(C([H])([H])C(=O)N4C([H])([H])C([H])([H])C([H])(C([H])([H])[H])C([H])([H])C4([H])[H])C4([H])C2([H])C2([H])C1([H])C3([H])C42[H]

$$$$
42:1:0
     RDKit          3D

 54 59  0  0  1  0  0  0  0  0999 V2000
   -0.6741   -8.2125    4.7920 C   0  0  0  0  0  0  0  0  0  0  0  0
   -0.1606   -8.7994    3.4619 C   0  0  0  0  0  0  0  0  0  0  0  0
    1.3739   -8.7307    3.3728 C   0  0  0  0  0  0  0  0  0  0  0  0
    1.8704   -7.2865    3.2343 C   0  0  0  0  0  0  0  0  0  0  0  0
    1.2548   -6.6764    2.0462 N   0  0  0  0  0  0  0  0  0  0  0  0
    1.9385   -6.1114    1.0419 C   0  0  0  0  0  0  0  0  0  0  0  0
    1.3560   -5.7470    0.0147 O   0  0  0  0  0  0  0  0  0  0  0  0
    3.4423   -5.8330    1.1702 C   0  0  0  0  0  0  0  0  0  0  0  0
    3.8567   -4.6323    0.4365 N   0  0  0  0  0  0  0  0  0  0  0  0
    3.4893   -3.3699    0.7167 C   0  0  0  0  0  0  0  0  0  0  0  0
    2.7007   -3.0584    1.6266 O   0  0  0  0  0  0  0  0  0  0  0  0
    4.0964   -2.2848   -0.1787 C   0  0  2  0  0  0  0  0  0  0  0  0
    3.8422   -2.6676   -1.6708 C   0  0  1  0  0  0  0  0  0  0  0  0
    4.8102   -1.7465   -2.4368 C   0  0  1  0  0  0  0  0  0  0  0  0
    4.4621   -0.2875   -2.3727 C   0  0  0  0  0  0  0  0  0  0  0  0
    4.0327    0.5241   -3.3515 C   0  0  0  0  0  0  0  0  0  0  0  0
    3.7046    0.2926   -4.7918 C   0  0  0  0  0  0  0  0  0  0  0  0
    3.6962   -1.0513   -5.1197 O   0  0  0  0  0  0  0  0  0  0  0  0
    6.0323   -2.1312   -1.6519 C   0  0  1  0  0  0  0  0  0  0  0  0
    5.6426   -2.3805   -0.1772 C   0  0  2  0  0  0  0  0  0  0  0  0
    6.0602   -3.8652   -0.3531 C   0  0  2  0  0  0  0  0  0  0  0  0
    6.0204   -3.6099   -1.8380 C   0  0  1  0  0  0  0  0  0  0  0  0
    4.5611   -4.0217   -1.8682 C   0  0  1  0  0  0  0  0  0  0  0  0
    4.8941   -4.8634   -0.5907 C   0  0  2  0  0  0  0  0  0  0  0  0
   -0.2204   -6.6810    2.0914 C   0  0  0  0  0  0  0  0  0  0  0  0
   -0.7794   -8.0994    2.2416 C   0  0  0  0  0  0  0  0  0  0  0  0
   -0.4371   -7.1567    4.9153 H   0  0  0  0  0  0  0  0  0  0  0  0
   -0.2260   -8.7269    5.6399 H   0  0  0  0  0  0  0  0  0  0  0  0
   -1.7555   -8.3041    4.8629 H   0  0  0  0  0  0  0  0  0  0  0  0
   -0.4428   -9.8527    3.4157 H   0  0  0  0  0  0  0  0  0  0  0  0
    1.8344   -9.1995    4.2460 H   0  0  0  0  0  0  0  0  0  0  0  0
    1.7201   -9.3012    2.5024 H   0  0  0  0  0  0  0  0  0  0  0  0
    1.6510   -6.6887    4.1195 H   0  0  0  0  0  0  0  0  0  0  0  0
    2.9513   -7.3945    3.2055 H   0  0  0  0  0  0  0  0  0  0  0  0
    3.7387   -5.5804    2.1844 H   0  0  0  0  0  0  0  0  0  0  0  0
    3.9556   -6.7484    0.8813 H   0  0  0  0  0  0  0  0  0  0  0  0
    3.7223   -1.3022    0.0888 H   0  0  0  0  0  0  0  0  0  0  0  0
    2.7979   -2.6748   -1.9967 H   0  0  0  0  0  0  0  0  0  0  0  0
    4.9424   -2.1042   -3.4507 H   0  0  0  0  0  0  0  0  0  0  0  0
    4.5933    0.1280   -1.3884 H   0  0  0  0  0  0  0  0  0  0  0  0
    3.8711    1.5418   -3.1280 H   0  0  0  0  0  0  0  0  0  0  0  0
    2.7148    0.7072   -4.9846 H   0  0  0  0  0  0  0  0  0  0  0  0
    4.4125    0.8647   -5.3899 H   0  0  0  0  0  0  0  0  0  0  0  0
    2.8053   -1.2899   -5.3614 H   0  0  0  0  0  0  0  0  0  0  0  0
    7.0165   -1.7298   -1.8673 H   0  0  0  0  0  0  0  0  0  0  0  0
    6.2314   -1.8142    0.5446 H   0  0  0  0  0  0  0  0  0  0  0  0
    7.0415   -4.1984    0.0024 H   0  0  0  0  0  0  0  0  0  0  0  0
    6.6902   -4.0466   -2.5633 H   0  0  0  0  0  0  0  0  0  0  0  0
    4.4069   -4.4756   -2.8422 H   0  0  0  0  0  0  0  0  0  0  0  0
    5.2525   -5.8758   -0.7957 H   0  0  0  0  0  0  0  0  0  0  0  0
   -0.5016   -6.0888    2.9557 H   0  0  0  0  0  0  0  0  0  0  0  0
   -0.6974   -6.2380    1.2189 H   0  0  0  0  0  0  0  0  0  0  0  0
   -0.5557   -8.6482    1.3280 H   0  0  0  0  0  0  0  0  0  0  0  0
   -1.8684   -8.0880    2.3176 H   0  0  0  0  0  0  0  0  0  0  0  0
  1  2  1  0
  1 27  1  0
  1 28  1  0
  1 29  1  0
  2 26  1  0
  2  3  1  0
  2 30  1  0
  3  4  1  0
  3 31  1  0
  3 32  1  0
  4  5  1  0
  4 33  1  0
  4 34  1  0
  5  6  1  0
  5 25  1  0
  6  7  2  0
  6  8  1  0
  8  9  1  0
  8 35  1  0
  8 36  1  0
  9 24  1  0
  9 10  1  0
 10 11  2  0
 10 12  1  0
 12 20  1  0
 12 13  1  0
 12 37  1  1
 13 23  1  0
 13 14  1  0
 13 38  1  6
 14 15  1  0
 14 19  1  0
 14 39  1  6
 15 16  2  3
 15 40  1  0
 16 17  1  0
 16 41  1  0
 17 18  1  0
 17 42  1  0
 17 43  1  0
 18 44  1  0
 19 22  1  0
 19 20  1  0
 19 45  1  1
 20 21  1  0
 20 46  1  1
 21 24  1  0
 21 22  1  0
 21 47  1  1
 22 23  1  0
 22 48  1  6
 23 24  1  0
 23 49  1  6
 24 50  1  6
 25 26  1  0
 25 51  1  0
 25 52  1  0
 26 53  1  0
 26 54  1  0
M  END
>  <i_m_ct_stereo_status>  (131) 
1

>  <s_m_source_file>  (131) 
/var/tmp/pbs.5076255.sched01/tmpmmp70uc3/38qnywpnyg.sdf

>  <i_m_source_file_index>  (131) 
22

>  <i_lp_mmshare_version>  (131) 
48012

>  <i_f3d_flags>  (131) 
0

>  <s_epik_input>  (131) 
W0NIM11bQ0hdMVtDSDJdW0NIMl1OKFtDSDJdW0NIMl0xKUMoPU8pW0NIMl1OKEMyPU8pW0NAQEhdM1tDQEBIXTRbQ0BIXTVbQ0BASF0oW0NAQEhdNFtDQEBIXTNbQ0BIXTZbQ0BASF0yNSlbQ0BASF02L1tDSF09W0NIXS9bQ0gyXVtPSF0=

>  <s_epik_cmdline>  (131) 
J2VwaWtfcHl0aG9uJywgJy1waHQnLCAnMi4wJywgJy1waCcsICc3LjAnLCAnLXRuJywgJzgnLCAnLW1hJywgJzIwMCcsICctaW1hZScsICc8aW5maWxlLm1hZT4nLCAnLW9tYWUnLCAnPG91dGZpbGUubWFlPic=

>  <r_lp_tautomer_probability>  (131) 
1

>  <r_epik_Ionization_Penalty>  (131) 
2.88552e-07

>  <r_epik_Ionization_Penalty_Charging>  (131) 
0

>  <r_epik_Ionization_Penalty_Neutral>  (131) 
2.88552e-07

>  <r_epik_State_Penalty>  (131) 
-0

>  <r_epik_Charging_Adjusted_Penalty>  (131) 
0

>  <i_epik_Tot_Q>  (131) 
0

>  <i_epik_Tot_abs_Q>  (131) 
0

>  <s_lp_Force_Field>  (131) 
OPLS3e

>  <r_lp_Energy>  (131) 
85.3633

>  <b_lp_Chiralities_Consistent>  (131) 
1

>  <s_lp_Variant>  (131) 
42:0-2

>  <s_i_glide_gridfile>  (131) 
pfpi4k_grid

>  <i_i_glide_lignum>  (131) 
22

>  <i_i_glide_rotatable_bonds>  (131) 
6

>  <r_i_docking_score>  (131) 
-3.58999

>  <r_i_glide_ligand_efficiency>  (131) 
-0.138077

>  <r_i_glide_ligand_efficiency_sa>  (131) 
-0.409051

>  <r_i_glide_ligand_efficiency_ln>  (131) 
-0.843097

>  <r_i_glide_gscore>  (131) 
-3.58999

>  <r_i_glide_lipo>  (131) 
-0.411223

>  <r_i_glide_hbond>  (131) 
-0.808746

>  <r_i_glide_metal>  (131) 
-0

>  <r_i_glide_rewards>  (131) 
-0.993226

>  <r_i_glide_evdw>  (131) 
-17.9859

>  <r_i_glide_ecoul>  (131) 
-7.57215

>  <r_i_glide_erotb>  (131) 
0.75288

>  <r_i_glide_esite>  (131) 
-0.0945545

>  <r_i_glide_emodel>  (131) 
-28.155

>  <r_i_glide_energy>  (131) 
-25.5581

>  <r_i_glide_einternal>  (131) 
4.92886

>  <r_i_glide_intrahb_reward>  (131) 
-0

>  <i_i_glide_confnum>  (131) 
4

>  <i_i_glide_posenum>  (131) 
1

>  <r_i_glide_eff_state_penalty>  (131) 
0

>  <ligand_id>  (131) 
42

>  <original_smiles>  (131) 
CC1CCN(C(=O)CN2C(=O)C3C4C(C=CCO)C5C3C3C5C4C32)CC1

>  <smiles>  (131) 
[H]OC([H])([H])C([H])=C([H])C1([H])C2([H])C3([H])C(=O)N(C([H])([H])C(=O)N4C([H])([H])C([H])([H])C([H])(C([H])([H])[H])C([H])([H])C4([H])[H])C4([H])C2([H])C2([H])C1([H])C3([H])C42[H]

$$$$
42:1:1
     RDKit          3D

 54 59  0  0  1  0  0  0  0  0999 V2000
   -0.2660   -8.6576    5.5863 C   0  0  0  0  0  0  0  0  0  0  0  0
   -0.6822   -7.3521    4.8812 C   0  0  0  0  0  0  0  0  0  0  0  0
   -0.7385   -7.5202    3.3527 C   0  0  0  0  0  0  0  0  0  0  0  0
    0.6703   -7.6915    2.7552 C   0  0  0  0  0  0  0  0  0  0  0  0
    1.5737   -6.6019    3.1972 N   0  0  0  0  0  0  0  0  0  0  0  0
    2.2932   -5.8863    2.3078 C   0  0  0  0  0  0  0  0  0  0  0  0
    2.0766   -5.9422    1.0975 O   0  0  0  0  0  0  0  0  0  0  0  0
    3.4572   -5.0122    2.8314 C   0  0  0  0  0  0  0  0  0  0  0  0
    3.9280   -4.0451    1.8449 N   0  0  0  0  0  0  0  0  0  0  0  0
    3.4164   -2.8049    1.6938 C   0  0  0  0  0  0  0  0  0  0  0  0
    2.5016   -2.3443    2.3746 O   0  0  0  0  0  0  0  0  0  0  0  0
    4.0713   -1.9758    0.5797 C   0  0  2  0  0  0  0  0  0  0  0  0
    4.0013   -2.7900   -0.7576 C   0  0  1  0  0  0  0  0  0  0  0  0
    4.9625   -1.9957   -1.6807 C   0  0  1  0  0  0  0  0  0  0  0  0
    4.5172   -0.5802   -1.9905 C   0  0  0  0  0  0  0  0  0  0  0  0
    4.0039   -0.0990   -3.1385 C   0  0  0  0  0  0  0  0  0  0  0  0
    3.6920   -0.8388   -4.4208 C   0  0  0  0  0  0  0  0  0  0  0  0
    3.4243    0.0887   -5.4603 O   0  0  0  0  0  0  0  0  0  0  0  0
    6.1443   -2.0829   -0.7241 C   0  0  1  0  0  0  0  0  0  0  0  0
    5.6064   -1.9317    0.7290 C   0  0  2  0  0  0  0  0  0  0  0  0
    6.1398   -3.3488    1.0374 C   0  0  2  0  0  0  0  0  0  0  0  0
    6.2595   -3.5673   -0.4503 C   0  0  1  0  0  0  0  0  0  0  0  0
    4.8225   -4.0979   -0.4705 C   0  0  1  0  0  0  0  0  0  0  0  0
    5.0726   -4.4718    1.0253 C   0  0  2  0  0  0  0  0  0  0  0  0
    1.6747   -6.4547    4.6628 C   0  0  0  0  0  0  0  0  0  0  0  0
    0.2747   -6.2136    5.2564 C   0  0  0  0  0  0  0  0  0  0  0  0
    0.7233   -9.0077    5.2876 H   0  0  0  0  0  0  0  0  0  0  0  0
   -0.9565   -9.4515    5.3349 H   0  0  0  0  0  0  0  0  0  0  0  0
   -0.2418   -8.5529    6.6708 H   0  0  0  0  0  0  0  0  0  0  0  0
   -1.6814   -7.0771    5.2185 H   0  0  0  0  0  0  0  0  0  0  0  0
   -1.3666   -8.3776    3.0937 H   0  0  0  0  0  0  0  0  0  0  0  0
   -1.2212   -6.6582    2.9010 H   0  0  0  0  0  0  0  0  0  0  0  0
    1.0981   -8.6396    3.0793 H   0  0  0  0  0  0  0  0  0  0  0  0
    0.5900   -7.7850    1.6707 H   0  0  0  0  0  0  0  0  0  0  0  0
    3.1514   -4.4221    3.6874 H   0  0  0  0  0  0  0  0  0  0  0  0
    4.2649   -5.6621    3.1790 H   0  0  0  0  0  0  0  0  0  0  0  0
    3.6213   -0.9827    0.5294 H   0  0  0  0  0  0  0  0  0  0  0  0
    2.9922   -2.9531   -1.1429 H   0  0  0  0  0  0  0  0  0  0  0  0
    5.1463   -2.5364   -2.6118 H   0  0  0  0  0  0  0  0  0  0  0  0
    4.6202    0.1272   -1.1860 H   0  0  0  0  0  0  0  0  0  0  0  0
    3.7711    0.9456   -3.1588 H   0  0  0  0  0  0  0  0  0  0  0  0
    4.5325   -1.4712   -4.7001 H   0  0  0  0  0  0  0  0  0  0  0  0
    2.8146   -1.4735   -4.2863 H   0  0  0  0  0  0  0  0  0  0  0  0
    2.6092    0.5269   -5.2658 H   0  0  0  0  0  0  0  0  0  0  0  0
    7.0835   -1.5818   -0.9324 H   0  0  0  0  0  0  0  0  0  0  0  0
    6.0583   -1.1387    1.3312 H   0  0  0  0  0  0  0  0  0  0  0  0
    7.0682   -3.4752    1.6031 H   0  0  0  0  0  0  0  0  0  0  0  0
    7.0937   -4.1640   -0.8055 H   0  0  0  0  0  0  0  0  0  0  0  0
    4.6772   -4.9471   -1.1442 H   0  0  0  0  0  0  0  0  0  0  0  0
    5.4772   -5.4767    1.1692 H   0  0  0  0  0  0  0  0  0  0  0  0
    2.1354   -7.3556    5.0771 H   0  0  0  0  0  0  0  0  0  0  0  0
    2.2855   -5.6325    5.0193 H   0  0  0  0  0  0  0  0  0  0  0  0
   -0.1253   -5.2659    4.8950 H   0  0  0  0  0  0  0  0  0  0  0  0
    0.3385   -6.1224    6.3392 H   0  0  0  0  0  0  0  0  0  0  0  0
  1  2  1  0
  1 27  1  0
  1 28  1  0
  1 29  1  0
  2 26  1  0
  2  3  1  0
  2 30  1  0
  3  4  1  0
  3 31  1  0
  3 32  1  0
  4  5  1  0
  4 33  1  0
  4 34  1  0
  5  6  1  0
  5 25  1  0
  6  7  2  0
  6  8  1  0
  8  9  1  0
  8 35  1  0
  8 36  1  0
  9 24  1  0
  9 10  1  0
 10 11  2  0
 10 12  1  0
 12 20  1  0
 12 13  1  0
 12 37  1  6
 13 23  1  0
 13 14  1  0
 13 38  1  6
 14 15  1  0
 14 19  1  0
 14 39  1  6
 15 16  2  3
 15 40  1  0
 16 17  1  0
 16 41  1  0
 17 18  1  0
 17 42  1  0
 17 43  1  0
 18 44  1  0
 19 22  1  0
 19 20  1  0
 19 45  1  6
 20 21  1  0
 20 46  1  1
 21 24  1  0
 21 22  1  0
 21 47  1  1
 22 23  1  0
 22 48  1  1
 23 24  1  0
 23 49  1  6
 24 50  1  6
 25 26  1  0
 25 51  1  0
 25 52  1  0
 26 53  1  0
 26 54  1  0
M  END
>  <i_m_ct_stereo_status>  (132) 
1

>  <s_m_source_file>  (132) 
/var/tmp/pbs.5076255.sched01/tmpmmp70uc3/38qnywpnyg.sdf

>  <i_m_source_file_index>  (132) 
22

>  <i_lp_mmshare_version>  (132) 
48012

>  <i_f3d_flags>  (132) 
0

>  <s_epik_input>  (132) 
W0NIM11bQ0hdMVtDSDJdW0NIMl1OKFtDSDJdW0NIMl0xKUMoPU8pW0NIMl1OKEMyPU8pW0NAQEhdM1tDQEBIXTRbQ0BIXTVbQ0BASF0oW0NAQEhdNFtDQEBIXTNbQ0BIXTZbQ0BASF0yNSlbQ0BASF02L1tDSF09W0NIXS9bQ0gyXVtPSF0=

>  <s_epik_cmdline>  (132) 
J2VwaWtfcHl0aG9uJywgJy1waHQnLCAnMi4wJywgJy1waCcsICc3LjAnLCAnLXRuJywgJzgnLCAnLW1hJywgJzIwMCcsICctaW1hZScsICc8aW5maWxlLm1hZT4nLCAnLW9tYWUnLCAnPG91dGZpbGUubWFlPic=

>  <r_lp_tautomer_probability>  (132) 
1

>  <r_epik_Ionization_Penalty>  (132) 
2.88552e-07

>  <r_epik_Ionization_Penalty_Charging>  (132) 
0

>  <r_epik_Ionization_Penalty_Neutral>  (132) 
2.88552e-07

>  <r_epik_State_Penalty>  (132) 
-0

>  <r_epik_Charging_Adjusted_Penalty>  (132) 
0

>  <i_epik_Tot_Q>  (132) 
0

>  <i_epik_Tot_abs_Q>  (132) 
0

>  <s_lp_Force_Field>  (132) 
OPLS3e

>  <r_lp_Energy>  (132) 
85.3633

>  <b_lp_Chiralities_Consistent>  (132) 
1

>  <s_lp_Variant>  (132) 
42:0-2

>  <s_i_glide_gridfile>  (132) 
pfpi4k_grid

>  <i_i_glide_lignum>  (132) 
22

>  <i_i_glide_rotatable_bonds>  (132) 
6

>  <r_i_docking_score>  (132) 
-2.2991

>  <r_i_glide_ligand_efficiency>  (132) 
-0.0884271

>  <r_i_glide_ligand_efficiency_sa>  (132) 
-0.261965

>  <r_i_glide_ligand_efficiency_ln>  (132) 
-0.539937

>  <r_i_glide_gscore>  (132) 
-2.2991

>  <r_i_glide_lipo>  (132) 
-0.555194

>  <r_i_glide_hbond>  (132) 
0

>  <r_i_glide_metal>  (132) 
-0

>  <r_i_glide_rewards>  (132) 
-0.98774

>  <r_i_glide_evdw>  (132) 
-24.8955

>  <r_i_glide_ecoul>  (132) 
-1.55412

>  <r_i_glide_erotb>  (132) 
0.75288

>  <r_i_glide_esite>  (132) 
-0.031157

>  <r_i_glide_emodel>  (132) 
-28.2032

>  <r_i_glide_energy>  (132) 
-26.4496

>  <r_i_glide_einternal>  (132) 
3.01843

>  <r_i_glide_intrahb_reward>  (132) 
-0

>  <i_i_glide_confnum>  (132) 
2

>  <i_i_glide_posenum>  (132) 
16

>  <r_i_glide_eff_state_penalty>  (132) 
0

>  <ligand_id>  (132) 
42

>  <original_smiles>  (132) 
CC1CCN(C(=O)CN2C(=O)C3C4C(C=CCO)C5C3C3C5C4C32)CC1

>  <smiles>  (132) 
[H]OC([H])([H])C([H])=C([H])C1([H])C2([H])C3([H])C(=O)N(C([H])([H])C(=O)N4C([H])([H])C([H])([H])C([H])(C([H])([H])[H])C([H])([H])C4([H])[H])C4([H])C2([H])C2([H])C1([H])C3([H])C42[H]

$$$$
42:1:2
     RDKit          3D

 54 59  0  0  1  0  0  0  0  0999 V2000
    2.7284   -5.9685    1.5622 C   0  0  0  0  0  0  0  0  0  0  0  0
    3.7110   -5.0833    2.3528 C   0  0  0  0  0  0  0  0  0  0  0  0
    3.0736   -4.5929    3.6576 C   0  0  0  0  0  0  0  0  0  0  0  0
    1.9296   -3.6041    3.3859 C   0  0  0  0  0  0  0  0  0  0  0  0
    2.4307   -2.4652    2.5816 N   0  0  0  0  0  0  0  0  0  0  0  0
    2.3162   -1.1620    2.9252 C   0  0  0  0  0  0  0  0  0  0  0  0
    2.7341   -0.2625    2.1856 O   0  0  0  0  0  0  0  0  0  0  0  0
    1.7004   -0.7558    4.2850 C   0  0  0  0  0  0  0  0  0  0  0  0
    0.6686    0.2716    4.1381 N   0  0  0  0  0  0  0  0  0  0  0  0
   -0.6643    0.0452    4.2683 C   0  0  0  0  0  0  0  0  0  0  0  0
   -1.1789   -1.0418    4.5117 O   0  0  0  0  0  0  0  0  0  0  0  0
   -1.5442    1.2854    4.1119 C   0  0  2  0  0  0  0  0  0  0  0  0
   -1.2414    1.9681    2.7363 C   0  0  1  0  0  0  0  0  0  0  0  0
   -1.9607    3.3471    2.8864 C   0  0  1  0  0  0  0  0  0  0  0  0
   -3.4794    3.2804    2.9957 C   0  0  0  0  0  0  0  0  0  0  0  0
   -4.4042    4.1073    2.4664 C   0  0  0  0  0  0  0  0  0  0  0  0
   -4.1838    5.3675    1.6464 C   0  0  0  0  0  0  0  0  0  0  0  0
   -5.0155    6.4124    2.0803 O   0  0  0  0  0  0  0  0  0  0  0  0
   -1.2325    3.7192    4.1672 C   0  0  1  0  0  0  0  0  0  0  0  0
   -1.0927    2.4343    5.0344 C   0  0  2  0  0  0  0  0  0  0  0  0
    0.4416    2.5793    4.9542 C   0  0  2  0  0  0  0  0  0  0  0  0
    0.2320    3.5379    3.8046 C   0  0  1  0  0  0  0  0  0  0  0  0
    0.2811    2.3501    2.8422 C   0  0  1  0  0  0  0  0  0  0  0  0
    1.1421    1.6513    3.9373 C   0  0  2  0  0  0  0  0  0  0  0  0
    3.0338   -2.8669    1.2900 C   0  0  0  0  0  0  0  0  0  0  0  0
    4.1809   -3.8726    1.5234 C   0  0  0  0  0  0  0  0  0  0  0  0
    1.8343   -5.4270    1.2572 H   0  0  0  0  0  0  0  0  0  0  0  0
    2.3878   -6.8111    2.1638 H   0  0  0  0  0  0  0  0  0  0  0  0
    3.1865   -6.3456    0.6482 H   0  0  0  0  0  0  0  0  0  0  0  0
    4.5832   -5.6881    2.6110 H   0  0  0  0  0  0  0  0  0  0  0  0
    2.6985   -5.4327    4.2383 H   0  0  0  0  0  0  0  0  0  0  0  0
    3.8250   -4.1055    4.2816 H   0  0  0  0  0  0  0  0  0  0  0  0
    1.1096   -4.0817    2.8410 H   0  0  0  0  0  0  0  0  0  0  0  0
    1.5268   -3.3924    4.3622 H   0  0  0  0  0  0  0  0  0  0  0  0
    1.2371   -1.5591    4.8272 H   0  0  0  0  0  0  0  0  0  0  0  0
    2.5122   -0.3979    4.9301 H   0  0  0  0  0  0  0  0  0  0  0  0
   -2.5808    0.9995    4.2805 H   0  0  0  0  0  0  0  0  0  0  0  0
   -1.4955    1.3705    1.8573 H   0  0  0  0  0  0  0  0  0  0  0  0
   -1.6874    4.0140    2.0779 H   0  0  0  0  0  0  0  0  0  0  0  0
   -3.8781    2.4572    3.5625 H   0  0  0  0  0  0  0  0  0  0  0  0
   -5.4403    3.8530    2.6393 H   0  0  0  0  0  0  0  0  0  0  0  0
   -3.1430    5.7048    1.6864 H   0  0  0  0  0  0  0  0  0  0  0  0
   -4.4475    5.1499    0.6107 H   0  0  0  0  0  0  0  0  0  0  0  0
   -5.9035    6.1779    1.8561 H   0  0  0  0  0  0  0  0  0  0  0  0
   -1.4761    4.6361    4.6977 H   0  0  0  0  0  0  0  0  0  0  0  0
   -1.5050    2.4937    6.0406 H   0  0  0  0  0  0  0  0  0  0  0  0
    0.9954    2.9705    5.8091 H   0  0  0  0  0  0  0  0  0  0  0  0
    0.9164    4.3728    3.6719 H   0  0  0  0  0  0  0  0  0  0  0  0
    0.8225    2.5389    1.9159 H   0  0  0  0  0  0  0  0  0  0  0  0
    2.2175    1.8278    3.8457 H   0  0  0  0  0  0  0  0  0  0  0  0
    2.2657   -3.2990    0.6519 H   0  0  0  0  0  0  0  0  0  0  0  0
    3.4231   -2.0363    0.7002 H   0  0  0  0  0  0  0  0  0  0  0  0
    5.0011   -3.3668    2.0398 H   0  0  0  0  0  0  0  0  0  0  0  0
    4.5922   -4.2137    0.5692 H   0  0  0  0  0  0  0  0  0  0  0  0
  1  2  1  0
  1 27  1  0
  1 28  1  0
  1 29  1  0
  2 26  1  0
  2  3  1  0
  2 30  1  0
  3  4  1  0
  3 31  1  0
  3 32  1  0
  4  5  1  0
  4 33  1  0
  4 34  1  0
  5  6  1  0
  5 25  1  0
  6  7  2  0
  6  8  1  0
  8  9  1  0
  8 35  1  0
  8 36  1  0
  9 24  1  0
  9 10  1  0
 10 11  2  0
 10 12  1  0
 12 20  1  0
 12 13  1  0
 12 37  1  6
 13 23  1  0
 13 14  1  0
 13 38  1  6
 14 15  1  0
 14 19  1  0
 14 39  1  6
 15 16  2  3
 15 40  1  0
 16 17  1  0
 16 41  1  0
 17 18  1  0
 17 42  1  0
 17 43  1  0
 18 44  1  0
 19 22  1  0
 19 20  1  0
 19 45  1  1
 20 21  1  0
 20 46  1  1
 21 24  1  0
 21 22  1  0
 21 47  1  1
 22 23  1  0
 22 48  1  6
 23 24  1  0
 23 49  1  6
 24 50  1  6
 25 26  1  0
 25 51  1  0
 25 52  1  0
 26 53  1  0
 26 54  1  0
M  END
>  <i_m_ct_stereo_status>  (133) 
1

>  <s_m_source_file>  (133) 
/var/tmp/pbs.5076255.sched01/tmpmmp70uc3/38qnywpnyg.sdf

>  <i_m_source_file_index>  (133) 
22

>  <i_lp_mmshare_version>  (133) 
48012

>  <i_f3d_flags>  (133) 
0

>  <s_epik_input>  (133) 
W0NIM11bQ0hdMVtDSDJdW0NIMl1OKFtDSDJdW0NIMl0xKUMoPU8pW0NIMl1OKEMyPU8pW0NAQEhdM1tDQEBIXTRbQ0BIXTVbQ0BASF0oW0NAQEhdNFtDQEBIXTNbQ0BIXTZbQ0BASF0yNSlbQ0BASF02L1tDSF09W0NIXS9bQ0gyXVtPSF0=

>  <s_epik_cmdline>  (133) 
J2VwaWtfcHl0aG9uJywgJy1waHQnLCAnMi4wJywgJy1waCcsICc3LjAnLCAnLXRuJywgJzgnLCAnLW1hJywgJzIwMCcsICctaW1hZScsICc8aW5maWxlLm1hZT4nLCAnLW9tYWUnLCAnPG91dGZpbGUubWFlPic=

>  <r_lp_tautomer_probability>  (133) 
1

>  <r_epik_Ionization_Penalty>  (133) 
2.88552e-07

>  <r_epik_Ionization_Penalty_Charging>  (133) 
0

>  <r_epik_Ionization_Penalty_Neutral>  (133) 
2.88552e-07

>  <r_epik_State_Penalty>  (133) 
-0

>  <r_epik_Charging_Adjusted_Penalty>  (133) 
0

>  <i_epik_Tot_Q>  (133) 
0

>  <i_epik_Tot_abs_Q>  (133) 
0

>  <s_lp_Force_Field>  (133) 
OPLS3e

>  <r_lp_Energy>  (133) 
85.3633

>  <b_lp_Chiralities_Consistent>  (133) 
1

>  <s_lp_Variant>  (133) 
42:0-2

>  <s_i_glide_gridfile>  (133) 
pfpi4k_grid

>  <i_i_glide_lignum>  (133) 
22

>  <i_i_glide_rotatable_bonds>  (133) 
6

>  <r_i_docking_score>  (133) 
-1.90842

>  <r_i_glide_ligand_efficiency>  (133) 
-0.0734008

>  <r_i_glide_ligand_efficiency_sa>  (133) 
-0.21745

>  <r_i_glide_ligand_efficiency_ln>  (133) 
-0.448186

>  <r_i_glide_gscore>  (133) 
-1.90842

>  <r_i_glide_lipo>  (133) 
-0.131481

>  <r_i_glide_hbond>  (133) 
0

>  <r_i_glide_metal>  (133) 
-0

>  <r_i_glide_rewards>  (133) 
-0.978691

>  <r_i_glide_evdw>  (133) 
-21.9944

>  <r_i_glide_ecoul>  (133) 
-2.708

>  <r_i_glide_erotb>  (133) 
0.75288

>  <r_i_glide_esite>  (133) 
-0.0452071

>  <r_i_glide_emodel>  (133) 
-26.1828

>  <r_i_glide_energy>  (133) 
-24.7024

>  <r_i_glide_einternal>  (133) 
2.16346

>  <r_i_glide_intrahb_reward>  (133) 
-0

>  <i_i_glide_confnum>  (133) 
1

>  <i_i_glide_posenum>  (133) 
33

>  <r_i_glide_eff_state_penalty>  (133) 
0

>  <ligand_id>  (133) 
42

>  <original_smiles>  (133) 
CC1CCN(C(=O)CN2C(=O)C3C4C(C=CCO)C5C3C3C5C4C32)CC1

>  <smiles>  (133) 
[H]OC([H])([H])C([H])=C([H])C1([H])C2([H])C3([H])C(=O)N(C([H])([H])C(=O)N4C([H])([H])C([H])([H])C([H])(C([H])([H])[H])C([H])([H])C4([H])[H])C4([H])C2([H])C2([H])C1([H])C3([H])C42[H]

$$$$
44:0:0
     RDKit          3D

 48 50  0  0  1  0  0  0  0  0999 V2000
    2.6642    0.0568   -4.7921 C   0  0  0  0  0  0  0  0  0  0  0  0
    3.0882   -0.3676   -3.5864 C   0  0  0  0  0  0  0  0  0  0  0  0
    4.3573   -1.0454   -3.4276 C   0  0  0  0  0  0  0  0  0  0  0  0
    4.9027   -1.4833   -2.2940 C   0  0  0  0  0  0  0  0  0  0  0  0
    4.3751   -1.4005   -0.8569 C   0  0  2  0  0  0  0  0  0  0  0  0
    4.8953   -0.3026   -0.0874 O   0  0  0  0  0  0  0  0  0  0  0  0
    5.1402   -0.7353    1.2660 C   0  0  2  0  0  0  0  0  0  0  0  0
    6.5125   -1.3926    1.1786 C   0  0  0  0  0  0  0  0  0  0  0  0
    6.2305   -2.6758    0.3910 C   0  0  1  0  0  0  0  0  0  0  0  0
    7.2523   -2.8119   -0.7640 C   0  0  0  0  0  0  0  0  0  0  0  0
    6.6029   -3.8062    1.1413 O   0  0  0  0  0  0  0  0  0  0  0  0
    4.6369   -2.5676    0.1438 C   0  0  2  0  0  0  0  0  0  0  0  0
    3.8882   -3.9218   -0.1309 C   0  0  1  0  0  0  0  0  0  0  0  0
    2.5086   -3.7679   -0.7919 C   0  0  0  0  0  0  0  0  0  0  0  0
    4.6339   -4.6555   -1.0840 O   0  0  0  0  0  0  0  0  0  0  0  0
    3.7670   -4.8130    1.1429 C   0  0  0  0  0  0  0  0  0  0  0  0
    3.2742   -4.0590    2.4055 C   0  0  1  0  0  0  0  0  0  0  0  0
    3.2788   -4.9109    3.5331 O   0  0  0  0  0  0  0  0  0  0  0  0
    4.0338   -2.7462    2.7209 C   0  0  1  0  0  0  0  0  0  0  0  0
    5.2428   -3.0020    3.3953 O   0  0  0  0  0  0  0  0  0  0  0  0
    4.0960   -1.8436    1.4365 C   0  0  1  0  0  0  0  0  0  0  0  0
    2.6946   -1.1290    1.4550 C   0  0  0  0  0  0  0  0  0  0  0  0
    3.2658   -0.0880   -5.6870 H   0  0  0  0  0  0  0  0  0  0  0  0
    1.7132    0.5531   -4.9032 H   0  0  0  0  0  0  0  0  0  0  0  0
    2.4604   -0.1963   -2.7231 H   0  0  0  0  0  0  0  0  0  0  0  0
    4.9251   -1.2129   -4.3350 H   0  0  0  0  0  0  0  0  0  0  0  0
    5.8326   -1.9787   -2.4929 H   0  0  0  0  0  0  0  0  0  0  0  0
    3.3027   -1.2349   -0.9733 H   0  0  0  0  0  0  0  0  0  0  0  0
    5.0948    0.0681    2.0029 H   0  0  0  0  0  0  0  0  0  0  0  0
    7.2209   -0.7299    0.6813 H   0  0  0  0  0  0  0  0  0  0  0  0
    6.9173   -1.5869    2.1644 H   0  0  0  0  0  0  0  0  0  0  0  0
    7.4398   -1.8668   -1.2559 H   0  0  0  0  0  0  0  0  0  0  0  0
    6.9442   -3.5426   -1.5045 H   0  0  0  0  0  0  0  0  0  0  0  0
    8.2339   -3.1312   -0.4073 H   0  0  0  0  0  0  0  0  0  0  0  0
    6.3593   -4.5720    0.6334 H   0  0  0  0  0  0  0  0  0  0  0  0
    1.8198   -3.2419   -0.1474 H   0  0  0  0  0  0  0  0  0  0  0  0
    2.0526   -4.7312   -0.9994 H   0  0  0  0  0  0  0  0  0  0  0  0
    2.5449   -3.2337   -1.7398 H   0  0  0  0  0  0  0  0  0  0  0  0
    4.0533   -5.2034   -1.5909 H   0  0  0  0  0  0  0  0  0  0  0  0
    3.0885   -5.6416    0.9392 H   0  0  0  0  0  0  0  0  0  0  0  0
    4.7100   -5.3098    1.3630 H   0  0  0  0  0  0  0  0  0  0  0  0
    2.2284   -3.8051    2.2393 H   0  0  0  0  0  0  0  0  0  0  0  0
    4.1620   -5.2424    3.6570 H   0  0  0  0  0  0  0  0  0  0  0  0
    3.4641   -2.2269    3.4947 H   0  0  0  0  0  0  0  0  0  0  0  0
    5.0509   -3.4622    4.2030 H   0  0  0  0  0  0  0  0  0  0  0  0
    1.8535   -1.8113    1.3591 H   0  0  0  0  0  0  0  0  0  0  0  0
    2.5573   -0.3403    0.7165 H   0  0  0  0  0  0  0  0  0  0  0  0
    2.5421   -0.6019    2.3992 H   0  0  0  0  0  0  0  0  0  0  0  0
  1  2  2  0
  1 23  1  0
  1 24  1  0
  2  3  1  0
  2 25  1  0
  3  4  2  3
  3 26  1  0
  4  5  1  0
  4 27  1  0
  5 12  1  0
  5  6  1  0
  5 28  1  6
  6  7  1  0
  7 21  1  0
  7  8  1  0
  7 29  1  1
  8  9  1  0
  8 30  1  0
  8 31  1  0
  9 10  1  0
  9 11  1  1
 12  9  1  1
 10 32  1  0
 10 33  1  0
 10 34  1  0
 11 35  1  0
 12 21  1  0
 12 13  1  0
 13 14  1  0
 13 15  1  6
 13 16  1  0
 14 36  1  0
 14 37  1  0
 14 38  1  0
 15 39  1  0
 16 17  1  0
 16 40  1  0
 16 41  1  0
 17 18  1  0
 17 19  1  0
 17 42  1  6
 18 43  1  0
 19 20  1  0
 19 21  1  0
 19 44  1  1
 20 45  1  0
 21 22  1  6
 22 46  1  0
 22 47  1  0
 22 48  1  0
M  END
>  <i_m_ct_stereo_status>  (134) 
1

>  <s_m_source_file>  (134) 
/var/tmp/pbs.5076255.sched01/tmpmmp70uc3/38qnywpnyg.sdf

>  <i_m_source_file_index>  (134) 
24

>  <i_lp_mmshare_version>  (134) 
48012

>  <i_f3d_flags>  (134) 
0

>  <s_epik_input>  (134) 
W0NIMl09W0NIXS9bQ0hdPVtDSF1cW0NAQEhdMU9bQ0BIXShbQ0gyXVtDQEBdMihbQ0gzXSlbT0hdKVtDQF0oW0NAQF0xMjMpKFtDSDNdKVtDQEhdKFtPSF0pW0NASF0oW09IXSlbQ0gyXVtDQF0zKFtDSDNdKVtPSF0=

>  <s_epik_cmdline>  (134) 
J2VwaWtfcHl0aG9uJywgJy1waHQnLCAnMi4wJywgJy1waCcsICc3LjAnLCAnLXRuJywgJzgnLCAnLW1hJywgJzIwMCcsICctaW1hZScsICc8aW5maWxlLm1hZT4nLCAnLW9tYWUnLCAnPG91dGZpbGUubWFlPic=

>  <r_lp_tautomer_probability>  (134) 
1

>  <r_epik_Ionization_Penalty>  (134) 
5.80208e-07

>  <r_epik_Ionization_Penalty_Charging>  (134) 
0

>  <r_epik_Ionization_Penalty_Neutral>  (134) 
5.80208e-07

>  <r_epik_State_Penalty>  (134) 
-0

>  <r_epik_Charging_Adjusted_Penalty>  (134) 
0

>  <i_epik_Tot_Q>  (134) 
0

>  <i_epik_Tot_abs_Q>  (134) 
0

>  <s_lp_Force_Field>  (134) 
OPLS3e

>  <r_lp_Energy>  (134) 
59.8256

>  <b_lp_Chiralities_Consistent>  (134) 
1

>  <s_lp_Variant>  (134) 
44:0-1

>  <s_i_glide_gridfile>  (134) 
pfpi4k_grid

>  <i_i_glide_lignum>  (134) 
24

>  <i_i_glide_rotatable_bonds>  (134) 
6

>  <r_i_docking_score>  (134) 
-3.27059

>  <r_i_glide_ligand_efficiency>  (134) 
-0.148663

>  <r_i_glide_ligand_efficiency_sa>  (134) 
-0.41656

>  <r_i_glide_ligand_efficiency_ln>  (134) 
-0.799451

>  <r_i_glide_gscore>  (134) 
-3.27059

>  <r_i_glide_lipo>  (134) 
-0.718469

>  <r_i_glide_hbond>  (134) 
0

>  <r_i_glide_metal>  (134) 
-0

>  <r_i_glide_rewards>  (134) 
-1.29283

>  <r_i_glide_evdw>  (134) 
-23.3279

>  <r_i_glide_ecoul>  (134) 
-3.18386

>  <r_i_glide_erotb>  (134) 
0.384683

>  <r_i_glide_esite>  (134) 
0

>  <r_i_glide_emodel>  (134) 
-29.2616

>  <r_i_glide_energy>  (134) 
-26.5117

>  <r_i_glide_einternal>  (134) 
3.93295

>  <r_i_glide_intrahb_reward>  (134) 
-0

>  <i_i_glide_confnum>  (134) 
6

>  <i_i_glide_posenum>  (134) 
3

>  <r_i_glide_eff_state_penalty>  (134) 
0

>  <ligand_id>  (134) 
44

>  <original_smiles>  (134) 
C=CC=CC1OC2CC(C)(O)C13C(C)(O)CC(O)C(O)C23C

>  <smiles>  (134) 
[H]OC1([H])C([H])([H])C(O[H])(C([H])([H])[H])C23C([H])(C([H])=C([H])C([H])=C([H])[H])OC([H])(C([H])([H])C2(O[H])C([H])([H])[H])C3(C([H])([H])[H])C1([H])O[H]

$$$$
44:0:1
     RDKit          3D

 48 50  0  0  1  0  0  0  0  0999 V2000
    3.5775   -0.7215   -4.9119 C   0  0  0  0  0  0  0  0  0  0  0  0
    3.9678   -1.0280   -3.6699 C   0  0  0  0  0  0  0  0  0  0  0  0
    3.1864   -0.6755   -2.5125 C   0  0  0  0  0  0  0  0  0  0  0  0
    3.4646   -0.9574   -1.2199 C   0  0  0  0  0  0  0  0  0  0  0  0
    4.6637   -1.6139   -0.5798 C   0  0  2  0  0  0  0  0  0  0  0  0
    5.6056   -2.2105   -1.4862 O   0  0  0  0  0  0  0  0  0  0  0  0
    5.9488   -3.4911   -0.9460 C   0  0  2  0  0  0  0  0  0  0  0  0
    4.7652   -4.3801   -1.3087 C   0  0  0  0  0  0  0  0  0  0  0  0
    3.6452   -3.9153   -0.3687 C   0  0  1  0  0  0  0  0  0  0  0  0
    2.3300   -3.6427   -1.1557 C   0  0  0  0  0  0  0  0  0  0  0  0
    3.2627   -4.9860    0.4586 O   0  0  0  0  0  0  0  0  0  0  0  0
    4.3768   -2.7523    0.4366 C   0  0  2  0  0  0  0  0  0  0  0  0
    3.7386   -2.3816    1.8317 C   0  0  1  0  0  0  0  0  0  0  0  0
    4.1424   -1.0019    2.3945 C   0  0  0  0  0  0  0  0  0  0  0  0
    2.3373   -2.3215    1.6851 O   0  0  0  0  0  0  0  0  0  0  0  0
    3.9762   -3.4928    2.8972 C   0  0  0  0  0  0  0  0  0  0  0  0
    5.4340   -3.9886    2.9431 C   0  0  1  0  0  0  0  0  0  0  0  0
    5.5791   -5.0146    3.8974 O   0  0  0  0  0  0  0  0  0  0  0  0
    6.0746   -4.3904    1.5925 C   0  0  1  0  0  0  0  0  0  0  0  0
    5.6584   -5.6933    1.2345 O   0  0  0  0  0  0  0  0  0  0  0  0
    5.8554   -3.2358    0.5553 C   0  0  1  0  0  0  0  0  0  0  0  0
    7.0014   -2.2109    0.8608 C   0  0  0  0  0  0  0  0  0  0  0  0
    2.6613   -0.1968   -5.1186 H   0  0  0  0  0  0  0  0  0  0  0  0
    4.1844   -1.0250   -5.7352 H   0  0  0  0  0  0  0  0  0  0  0  0
    4.8895   -1.5780   -3.5757 H   0  0  0  0  0  0  0  0  0  0  0  0
    2.2544   -0.1460   -2.7159 H   0  0  0  0  0  0  0  0  0  0  0  0
    2.7498   -0.6752   -0.4648 H   0  0  0  0  0  0  0  0  0  0  0  0
    5.1385   -0.7609   -0.0892 H   0  0  0  0  0  0  0  0  0  0  0  0
    6.9032   -3.8548   -1.3290 H   0  0  0  0  0  0  0  0  0  0  0  0
    4.5082   -4.2460   -2.3538 H   0  0  0  0  0  0  0  0  0  0  0  0
    4.9873   -5.4365   -1.1731 H   0  0  0  0  0  0  0  0  0  0  0  0
    2.5116   -3.1492   -2.1063 H   0  0  0  0  0  0  0  0  0  0  0  0
    1.6110   -3.0624   -0.6061 H   0  0  0  0  0  0  0  0  0  0  0  0
    1.8149   -4.5584   -1.4386 H   0  0  0  0  0  0  0  0  0  0  0  0
    2.6037   -4.6380    1.0558 H   0  0  0  0  0  0  0  0  0  0  0  0
    5.1955   -0.9269    2.6358 H   0  0  0  0  0  0  0  0  0  0  0  0
    3.6126   -0.8108    3.3200 H   0  0  0  0  0  0  0  0  0  0  0  0
    3.8964   -0.1846    1.7201 H   0  0  0  0  0  0  0  0  0  0  0  0
    2.1084   -1.6342    1.0592 H   0  0  0  0  0  0  0  0  0  0  0  0
    3.6933   -3.1209    3.8776 H   0  0  0  0  0  0  0  0  0  0  0  0
    3.3086   -4.3418    2.7697 H   0  0  0  0  0  0  0  0  0  0  0  0
    5.9882   -3.1362    3.3223 H   0  0  0  0  0  0  0  0  0  0  0  0
    5.1544   -5.8007    3.5506 H   0  0  0  0  0  0  0  0  0  0  0  0
    7.1496   -4.5169    1.7572 H   0  0  0  0  0  0  0  0  0  0  0  0
    4.7431   -5.6257    0.9254 H   0  0  0  0  0  0  0  0  0  0  0  0
    6.9245   -1.7734    1.8449 H   0  0  0  0  0  0  0  0  0  0  0  0
    7.1087   -1.3834    0.1641 H   0  0  0  0  0  0  0  0  0  0  0  0
    7.9650   -2.7147    0.8044 H   0  0  0  0  0  0  0  0  0  0  0  0
  1  2  2  0
  1 23  1  0
  1 24  1  0
  2  3  1  0
  2 25  1  0
  3  4  2  3
  3 26  1  0
  4  5  1  0
  4 27  1  0
  5 12  1  0
  5  6  1  0
  5 28  1  1
  6  7  1  0
  7 21  1  0
  7  8  1  0
  7 29  1  1
  8  9  1  0
  8 30  1  0
  8 31  1  0
  9 10  1  0
  9 11  1  1
 12  9  1  6
 10 32  1  0
 10 33  1  0
 10 34  1  0
 11 35  1  0
 12 21  1  0
 12 13  1  0
 13 14  1  0
 13 15  1  6
 13 16  1  0
 14 36  1  0
 14 37  1  0
 14 38  1  0
 15 39  1  0
 16 17  1  0
 16 40  1  0
 16 41  1  0
 17 18  1  0
 17 19  1  0
 17 42  1  1
 18 43  1  0
 19 20  1  0
 19 21  1  0
 19 44  1  1
 20 45  1  0
 21 22  1  1
 22 46  1  0
 22 47  1  0
 22 48  1  0
M  END
>  <i_m_ct_stereo_status>  (135) 
1

>  <s_m_source_file>  (135) 
/var/tmp/pbs.5076255.sched01/tmpmmp70uc3/38qnywpnyg.sdf

>  <i_m_source_file_index>  (135) 
24

>  <i_lp_mmshare_version>  (135) 
48012

>  <i_f3d_flags>  (135) 
0

>  <s_epik_input>  (135) 
W0NIMl09W0NIXS9bQ0hdPVtDSF1cW0NAQEhdMU9bQ0BIXShbQ0gyXVtDQEBdMihbQ0gzXSlbT0hdKVtDQF0oW0NAQF0xMjMpKFtDSDNdKVtDQEhdKFtPSF0pW0NASF0oW09IXSlbQ0gyXVtDQF0zKFtDSDNdKVtPSF0=

>  <s_epik_cmdline>  (135) 
J2VwaWtfcHl0aG9uJywgJy1waHQnLCAnMi4wJywgJy1waCcsICc3LjAnLCAnLXRuJywgJzgnLCAnLW1hJywgJzIwMCcsICctaW1hZScsICc8aW5maWxlLm1hZT4nLCAnLW9tYWUnLCAnPG91dGZpbGUubWFlPic=

>  <r_lp_tautomer_probability>  (135) 
1

>  <r_epik_Ionization_Penalty>  (135) 
5.80208e-07

>  <r_epik_Ionization_Penalty_Charging>  (135) 
0

>  <r_epik_Ionization_Penalty_Neutral>  (135) 
5.80208e-07

>  <r_epik_State_Penalty>  (135) 
-0

>  <r_epik_Charging_Adjusted_Penalty>  (135) 
0

>  <i_epik_Tot_Q>  (135) 
0

>  <i_epik_Tot_abs_Q>  (135) 
0

>  <s_lp_Force_Field>  (135) 
OPLS3e

>  <r_lp_Energy>  (135) 
59.8256

>  <b_lp_Chiralities_Consistent>  (135) 
1

>  <s_lp_Variant>  (135) 
44:0-1

>  <s_i_glide_gridfile>  (135) 
pfpi4k_grid

>  <i_i_glide_lignum>  (135) 
24

>  <i_i_glide_rotatable_bonds>  (135) 
6

>  <r_i_docking_score>  (135) 
-3.13716

>  <r_i_glide_ligand_efficiency>  (135) 
-0.142598

>  <r_i_glide_ligand_efficiency_sa>  (135) 
-0.399565

>  <r_i_glide_ligand_efficiency_ln>  (135) 
-0.766836

>  <r_i_glide_gscore>  (135) 
-3.13716

>  <r_i_glide_lipo>  (135) 
-0.634495

>  <r_i_glide_hbond>  (135) 
0

>  <r_i_glide_metal>  (135) 
-0

>  <r_i_glide_rewards>  (135) 
-1.79283

>  <r_i_glide_evdw>  (135) 
-18.0751

>  <r_i_glide_ecoul>  (135) 
-1.27176

>  <r_i_glide_erotb>  (135) 
0.384683

>  <r_i_glide_esite>  (135) 
0

>  <r_i_glide_emodel>  (135) 
-28.9098

>  <r_i_glide_energy>  (135) 
-19.3468

>  <r_i_glide_einternal>  (135) 
0.149491

>  <r_i_glide_intrahb_reward>  (135) 
-0.5

>  <i_i_glide_confnum>  (135) 
1

>  <i_i_glide_posenum>  (135) 
2

>  <r_i_glide_eff_state_penalty>  (135) 
0

>  <ligand_id>  (135) 
44

>  <original_smiles>  (135) 
C=CC=CC1OC2CC(C)(O)C13C(C)(O)CC(O)C(O)C23C

>  <smiles>  (135) 
[H]OC1([H])C([H])([H])C(O[H])(C([H])([H])[H])C23C([H])(C([H])=C([H])C([H])=C([H])[H])OC([H])(C([H])([H])C2(O[H])C([H])([H])[H])C3(C([H])([H])[H])C1([H])O[H]

$$$$
44:0:2
     RDKit          3D

 48 50  0  0  1  0  0  0  0  0999 V2000
    2.6858   -1.5505    4.1192 C   0  0  0  0  0  0  0  0  0  0  0  0
    3.7120   -2.0502    4.7766 C   0  0  0  0  0  0  0  0  0  0  0  0
    5.0115   -2.4473    4.2264 C   0  0  0  0  0  0  0  0  0  0  0  0
    5.3483   -2.9286    3.0183 C   0  0  0  0  0  0  0  0  0  0  0  0
    4.4415   -3.2496    1.8437 C   0  0  2  0  0  0  0  0  0  0  0  0
    4.2693   -4.6779    1.6317 O   0  0  0  0  0  0  0  0  0  0  0  0
    4.2207   -4.9305    0.2111 C   0  0  2  0  0  0  0  0  0  0  0  0
    5.6849   -5.0878   -0.1358 C   0  0  0  0  0  0  0  0  0  0  0  0
    6.2299   -3.6578   -0.0109 C   0  0  1  0  0  0  0  0  0  0  0  0
    7.5122   -3.6824    0.8476 C   0  0  0  0  0  0  0  0  0  0  0  0
    6.7853   -3.2965   -1.2529 O   0  0  0  0  0  0  0  0  0  0  0  0
    4.9051   -2.8267    0.4027 C   0  0  2  0  0  0  0  0  0  0  0  0
    4.9345   -1.2787    0.0990 C   0  0  1  0  0  0  0  0  0  0  0  0
    3.9364   -0.3858    0.8596 C   0  0  0  0  0  0  0  0  0  0  0  0
    6.1696   -0.7590    0.5249 O   0  0  0  0  0  0  0  0  0  0  0  0
    4.8387   -0.9804   -1.4235 C   0  0  0  0  0  0  0  0  0  0  0  0
    3.7014   -1.7317   -2.1525 C   0  0  1  0  0  0  0  0  0  0  0  0
    3.7470   -1.4243   -3.5421 O   0  0  0  0  0  0  0  0  0  0  0  0
    3.7127   -3.2601   -1.9135 C   0  0  1  0  0  0  0  0  0  0  0  0
    4.7202   -3.8218   -2.7412 O   0  0  0  0  0  0  0  0  0  0  0  0
    3.7631   -3.5815   -0.3607 C   0  0  1  0  0  0  0  0  0  0  0  0
    2.2767   -3.4392    0.0836 C   0  0  0  0  0  0  0  0  0  0  0  0
    2.6924   -1.3629    3.0688 H   0  0  0  0  0  0  0  0  0  0  0  0
    1.7694   -1.2819    4.6467 H   0  0  0  0  0  0  0  0  0  0  0  0
    3.6263   -2.1887    5.8374 H   0  0  0  0  0  0  0  0  0  0  0  0
    5.8139   -2.3087    4.9005 H   0  0  0  0  0  0  0  0  0  0  0  0
    6.3619   -3.1205    2.8486 H   0  0  0  0  0  0  0  0  0  0  0  0
    3.5304   -2.8563    2.1296 H   0  0  0  0  0  0  0  0  0  0  0  0
    3.6052   -5.7833   -0.0675 H   0  0  0  0  0  0  0  0  0  0  0  0
    6.1575   -5.7973    0.5635 H   0  0  0  0  0  0  0  0  0  0  0  0
    5.7545   -5.4903   -1.1344 H   0  0  0  0  0  0  0  0  0  0  0  0
    7.4005   -4.3358    1.7107 H   0  0  0  0  0  0  0  0  0  0  0  0
    7.7650   -2.6983    1.2254 H   0  0  0  0  0  0  0  0  0  0  0  0
    8.3999   -4.0375    0.3046 H   0  0  0  0  0  0  0  0  0  0  0  0
    7.6027   -3.7481   -1.3838 H   0  0  0  0  0  0  0  0  0  0  0  0
    2.9142   -0.6350    0.6609 H   0  0  0  0  0  0  0  0  0  0  0  0
    4.0288    0.6478    0.5357 H   0  0  0  0  0  0  0  0  0  0  0  0
    4.0979   -0.4264    1.9125 H   0  0  0  0  0  0  0  0  0  0  0  0
    6.1997   -0.8197    1.4626 H   0  0  0  0  0  0  0  0  0  0  0  0
    4.6405    0.0844   -1.5883 H   0  0  0  0  0  0  0  0  0  0  0  0
    5.7921   -1.1669   -1.9379 H   0  0  0  0  0  0  0  0  0  0  0  0
    2.7482   -1.3391   -1.8022 H   0  0  0  0  0  0  0  0  0  0  0  0
    3.3927   -0.5622   -3.6622 H   0  0  0  0  0  0  0  0  0  0  0  0
    2.7875   -3.6508   -2.3290 H   0  0  0  0  0  0  0  0  0  0  0  0
    5.5361   -3.6827   -2.2734 H   0  0  0  0  0  0  0  0  0  0  0  0
    1.9657   -2.4088    0.0401 H   0  0  0  0  0  0  0  0  0  0  0  0
    2.0242   -3.7854    1.0821 H   0  0  0  0  0  0  0  0  0  0  0  0
    1.6434   -4.0533   -0.5595 H   0  0  0  0  0  0  0  0  0  0  0  0
  1  2  2  0
  1 23  1  0
  1 24  1  0
  2  3  1  0
  2 25  1  0
  3  4  2  3
  3 26  1  0
  4  5  1  0
  4 27  1  0
  5 12  1  0
  5  6  1  0
  5 28  1  1
  6  7  1  0
  7 21  1  0
  7  8  1  0
  7 29  1  1
  8  9  1  0
  8 30  1  0
  8 31  1  0
  9 10  1  0
  9 11  1  6
 12  9  1  6
 10 32  1  0
 10 33  1  0
 10 34  1  0
 11 35  1  0
 12 21  1  0
 12 13  1  0
 13 14  1  0
 13 15  1  1
 13 16  1  0
 14 36  1  0
 14 37  1  0
 14 38  1  0
 15 39  1  0
 16 17  1  0
 16 40  1  0
 16 41  1  0
 17 18  1  0
 17 19  1  0
 17 42  1  1
 18 43  1  0
 19 20  1  0
 19 21  1  0
 19 44  1  6
 20 45  1  0
 21 22  1  1
 22 46  1  0
 22 47  1  0
 22 48  1  0
M  END
>  <i_m_ct_stereo_status>  (136) 
1

>  <s_m_source_file>  (136) 
/var/tmp/pbs.5076255.sched01/tmpmmp70uc3/38qnywpnyg.sdf

>  <i_m_source_file_index>  (136) 
24

>  <i_lp_mmshare_version>  (136) 
48012

>  <i_f3d_flags>  (136) 
0

>  <s_epik_input>  (136) 
W0NIMl09W0NIXS9bQ0hdPVtDSF1cW0NAQEhdMU9bQ0BIXShbQ0gyXVtDQEBdMihbQ0gzXSlbT0hdKVtDQF0oW0NAQF0xMjMpKFtDSDNdKVtDQEhdKFtPSF0pW0NASF0oW09IXSlbQ0gyXVtDQF0zKFtDSDNdKVtPSF0=

>  <s_epik_cmdline>  (136) 
J2VwaWtfcHl0aG9uJywgJy1waHQnLCAnMi4wJywgJy1waCcsICc3LjAnLCAnLXRuJywgJzgnLCAnLW1hJywgJzIwMCcsICctaW1hZScsICc8aW5maWxlLm1hZT4nLCAnLW9tYWUnLCAnPG91dGZpbGUubWFlPic=

>  <r_lp_tautomer_probability>  (136) 
1

>  <r_epik_Ionization_Penalty>  (136) 
5.80208e-07

>  <r_epik_Ionization_Penalty_Charging>  (136) 
0

>  <r_epik_Ionization_Penalty_Neutral>  (136) 
5.80208e-07

>  <r_epik_State_Penalty>  (136) 
-0

>  <r_epik_Charging_Adjusted_Penalty>  (136) 
0

>  <i_epik_Tot_Q>  (136) 
0

>  <i_epik_Tot_abs_Q>  (136) 
0

>  <s_lp_Force_Field>  (136) 
OPLS3e

>  <r_lp_Energy>  (136) 
59.8256

>  <b_lp_Chiralities_Consistent>  (136) 
1

>  <s_lp_Variant>  (136) 
44:0-1

>  <s_i_glide_gridfile>  (136) 
pfpi4k_grid

>  <i_i_glide_lignum>  (136) 
24

>  <i_i_glide_rotatable_bonds>  (136) 
6

>  <r_i_docking_score>  (136) 
-3.04016

>  <r_i_glide_ligand_efficiency>  (136) 
-0.138189

>  <r_i_glide_ligand_efficiency_sa>  (136) 
-0.387211

>  <r_i_glide_ligand_efficiency_ln>  (136) 
-0.743126

>  <r_i_glide_gscore>  (136) 
-3.04016

>  <r_i_glide_lipo>  (136) 
-0.453924

>  <r_i_glide_hbond>  (136) 
0

>  <r_i_glide_metal>  (136) 
-0

>  <r_i_glide_rewards>  (136) 
-1.79283

>  <r_i_glide_evdw>  (136) 
-15.6151

>  <r_i_glide_ecoul>  (136) 
-2.64893

>  <r_i_glide_erotb>  (136) 
0.384683

>  <r_i_glide_esite>  (136) 
0

>  <r_i_glide_emodel>  (136) 
-23.3785

>  <r_i_glide_energy>  (136) 
-18.264

>  <r_i_glide_einternal>  (136) 
6.45373

>  <r_i_glide_intrahb_reward>  (136) 
-0.5

>  <i_i_glide_confnum>  (136) 
4

>  <i_i_glide_posenum>  (136) 
22

>  <r_i_glide_eff_state_penalty>  (136) 
0

>  <ligand_id>  (136) 
44

>  <original_smiles>  (136) 
C=CC=CC1OC2CC(C)(O)C13C(C)(O)CC(O)C(O)C23C

>  <smiles>  (136) 
[H]OC1([H])C([H])([H])C(O[H])(C([H])([H])[H])C23C([H])(C([H])=C([H])C([H])=C([H])[H])OC([H])(C([H])([H])C2(O[H])C([H])([H])[H])C3(C([H])([H])[H])C1([H])O[H]

$$$$
44:1:0
     RDKit          3D

 48 50  0  0  1  0  0  0  0  0999 V2000
    2.8805   -5.7912    5.6582 C   0  0  0  0  0  0  0  0  0  0  0  0
    3.3719   -4.6586    5.1322 C   0  0  0  0  0  0  0  0  0  0  0  0
    4.0662   -4.6228    3.8622 C   0  0  0  0  0  0  0  0  0  0  0  0
    4.5698   -3.4959    3.3512 C   0  0  0  0  0  0  0  0  0  0  0  0
    5.2718   -3.3653    2.0125 C   0  0  2  0  0  0  0  0  0  0  0  0
    6.4381   -2.5339    2.0727 O   0  0  0  0  0  0  0  0  0  0  0  0
    6.5223   -1.7175    0.8906 C   0  0  2  0  0  0  0  0  0  0  0  0
    5.5961   -0.5507    1.2006 C   0  0  0  0  0  0  0  0  0  0  0  0
    4.2101   -1.2151    1.1490 C   0  0  1  0  0  0  0  0  0  0  0  0
    3.3974   -0.8321    2.4108 C   0  0  0  0  0  0  0  0  0  0  0  0
    3.4695   -0.6141    0.1140 O   0  0  0  0  0  0  0  0  0  0  0  0
    4.5675   -2.7253    0.7850 C   0  0  2  0  0  0  0  0  0  0  0  0
    3.4252   -3.5523    0.0948 C   0  0  1  0  0  0  0  0  0  0  0  0
    3.5866   -5.0893    0.1390 C   0  0  0  0  0  0  0  0  0  0  0  0
    2.2384   -3.3739    0.8237 O   0  0  0  0  0  0  0  0  0  0  0  0
    3.1522   -3.1118   -1.3780 C   0  0  0  0  0  0  0  0  0  0  0  0
    4.4195   -2.9697   -2.2525 C   0  0  1  0  0  0  0  0  0  0  0  0
    4.0743   -2.4733   -3.5275 O   0  0  0  0  0  0  0  0  0  0  0  0
    5.5486   -2.1230   -1.6074 C   0  0  1  0  0  0  0  0  0  0  0  0
    5.3338   -0.7398   -1.7827 O   0  0  0  0  0  0  0  0  0  0  0  0
    5.8315   -2.6121   -0.1367 C   0  0  1  0  0  0  0  0  0  0  0  0
    6.7595   -3.8563   -0.3486 C   0  0  0  0  0  0  0  0  0  0  0  0
    2.9924   -6.7368    5.1515 H   0  0  0  0  0  0  0  0  0  0  0  0
    2.3549   -5.7774    6.6053 H   0  0  0  0  0  0  0  0  0  0  0  0
    3.2339   -3.7379    5.6729 H   0  0  0  0  0  0  0  0  0  0  0  0
    4.1731   -5.5418    3.3149 H   0  0  0  0  0  0  0  0  0  0  0  0
    4.4799   -2.5921    3.9580 H   0  0  0  0  0  0  0  0  0  0  0  0
    5.5746   -4.3869    1.7929 H   0  0  0  0  0  0  0  0  0  0  0  0
    7.5473   -1.4211    0.6525 H   0  0  0  0  0  0  0  0  0  0  0  0
    5.8435   -0.1471    2.1796 H   0  0  0  0  0  0  0  0  0  0  0  0
    5.7096    0.2650    0.4904 H   0  0  0  0  0  0  0  0  0  0  0  0
    3.9994   -0.8360    3.3226 H   0  0  0  0  0  0  0  0  0  0  0  0
    2.5454   -1.4780    2.5870 H   0  0  0  0  0  0  0  0  0  0  0  0
    3.0145    0.1852    2.3371 H   0  0  0  0  0  0  0  0  0  0  0  0
    2.5452   -0.8591    0.1406 H   0  0  0  0  0  0  0  0  0  0  0  0
    4.4254   -5.4601   -0.4390 H   0  0  0  0  0  0  0  0  0  0  0  0
    2.7071   -5.5750   -0.2767 H   0  0  0  0  0  0  0  0  0  0  0  0
    3.6919   -5.4630    1.1538 H   0  0  0  0  0  0  0  0  0  0  0  0
    1.9568   -2.4589    0.7306 H   0  0  0  0  0  0  0  0  0  0  0  0
    2.4641   -3.8119   -1.8511 H   0  0  0  0  0  0  0  0  0  0  0  0
    2.6181   -2.1680   -1.4281 H   0  0  0  0  0  0  0  0  0  0  0  0
    4.8011   -3.9751   -2.4241 H   0  0  0  0  0  0  0  0  0  0  0  0
    3.2687   -2.9114   -3.8020 H   0  0  0  0  0  0  0  0  0  0  0  0
    6.4427   -2.2802   -2.2215 H   0  0  0  0  0  0  0  0  0  0  0  0
    4.5677   -0.4957   -1.2473 H   0  0  0  0  0  0  0  0  0  0  0  0
    6.2182   -4.6211   -0.8823 H   0  0  0  0  0  0  0  0  0  0  0  0
    7.2024   -4.2992    0.5404 H   0  0  0  0  0  0  0  0  0  0  0  0
    7.6316   -3.5775   -0.9467 H   0  0  0  0  0  0  0  0  0  0  0  0
  1  2  2  0
  1 23  1  0
  1 24  1  0
  2  3  1  0
  2 25  1  0
  3  4  2  3
  3 26  1  0
  4  5  1  0
  4 27  1  0
  5 12  1  0
  5  6  1  0
  5 28  1  6
  6  7  1  0
  7 21  1  0
  7  8  1  0
  7 29  1  6
  8  9  1  0
  8 30  1  0
  8 31  1  0
  9 10  1  0
  9 11  1  6
 12  9  1  1
 10 32  1  0
 10 33  1  0
 10 34  1  0
 11 35  1  0
 12 21  1  0
 12 13  1  0
 13 14  1  0
 13 15  1  1
 13 16  1  0
 14 36  1  0
 14 37  1  0
 14 38  1  0
 15 39  1  0
 16 17  1  0
 16 40  1  0
 16 41  1  0
 17 18  1  0
 17 19  1  0
 17 42  1  6
 18 43  1  0
 19 20  1  0
 19 21  1  0
 19 44  1  6
 20 45  1  0
 21 22  1  6
 22 46  1  0
 22 47  1  0
 22 48  1  0
M  END
>  <i_m_ct_stereo_status>  (137) 
1

>  <s_m_source_file>  (137) 
/var/tmp/pbs.5076255.sched01/tmpmmp70uc3/38qnywpnyg.sdf

>  <i_m_source_file_index>  (137) 
25

>  <i_lp_mmshare_version>  (137) 
48012

>  <i_f3d_flags>  (137) 
0

>  <s_epik_input>  (137) 
W0NIMl09W0NIXS9bQ0hdPVtDSF1cW0NAQEhdMU9bQ0BIXShbQ0gyXVtDQEBdMihbQ0gzXSlbT0hdKVtDQF0oW0NAQF0xMjMpKFtDSDNdKVtDQEhdKFtPSF0pW0NASF0oW09IXSlbQ0gyXVtDQF0zKFtDSDNdKVtPSF0=

>  <s_epik_cmdline>  (137) 
J2VwaWtfcHl0aG9uJywgJy1waHQnLCAnMi4wJywgJy1waCcsICc3LjAnLCAnLXRuJywgJzgnLCAnLW1hJywgJzIwMCcsICctaW1hZScsICc8aW5maWxlLm1hZT4nLCAnLW9tYWUnLCAnPG91dGZpbGUubWFlPic=

>  <r_lp_tautomer_probability>  (137) 
1

>  <r_epik_Ionization_Penalty>  (137) 
5.80208e-07

>  <r_epik_Ionization_Penalty_Charging>  (137) 
0

>  <r_epik_Ionization_Penalty_Neutral>  (137) 
5.80208e-07

>  <r_epik_State_Penalty>  (137) 
-0

>  <r_epik_Charging_Adjusted_Penalty>  (137) 
0

>  <i_epik_Tot_Q>  (137) 
0

>  <i_epik_Tot_abs_Q>  (137) 
0

>  <s_lp_Force_Field>  (137) 
OPLS3e

>  <r_lp_Energy>  (137) 
56.853

>  <b_lp_Chiralities_Consistent>  (137) 
1

>  <s_lp_Variant>  (137) 
44:0-2

>  <s_i_glide_gridfile>  (137) 
pfpi4k_grid

>  <i_i_glide_lignum>  (137) 
25

>  <i_i_glide_rotatable_bonds>  (137) 
6

>  <r_i_docking_score>  (137) 
-3.51441

>  <r_i_glide_ligand_efficiency>  (137) 
-0.159746

>  <r_i_glide_ligand_efficiency_sa>  (137) 
-0.447614

>  <r_i_glide_ligand_efficiency_ln>  (137) 
-0.859049

>  <r_i_glide_gscore>  (137) 
-3.51441

>  <r_i_glide_lipo>  (137) 
-0.372208

>  <r_i_glide_hbond>  (137) 
0

>  <r_i_glide_metal>  (137) 
-0

>  <r_i_glide_rewards>  (137) 
-1.79283

>  <r_i_glide_evdw>  (137) 
-14.7111

>  <r_i_glide_ecoul>  (137) 
-6.65667

>  <r_i_glide_erotb>  (137) 
0.384683

>  <r_i_glide_esite>  (137) 
0

>  <r_i_glide_emodel>  (137) 
-32.806

>  <r_i_glide_energy>  (137) 
-21.3677

>  <r_i_glide_einternal>  (137) 
0.753278

>  <r_i_glide_intrahb_reward>  (137) 
-0.5

>  <i_i_glide_confnum>  (137) 
4

>  <i_i_glide_posenum>  (137) 
16

>  <r_i_glide_eff_state_penalty>  (137) 
0

>  <ligand_id>  (137) 
44

>  <original_smiles>  (137) 
C=CC=CC1OC2CC(C)(O)C13C(C)(O)CC(O)C(O)C23C

>  <smiles>  (137) 
[H]OC1([H])C([H])([H])C(O[H])(C([H])([H])[H])C23C([H])(C([H])=C([H])C([H])=C([H])[H])OC([H])(C([H])([H])C2(O[H])C([H])([H])[H])C3(C([H])([H])[H])C1([H])O[H]

$$$$
44:1:1
     RDKit          3D

 48 50  0  0  1  0  0  0  0  0999 V2000
    3.4933   -5.8926    5.8035 C   0  0  0  0  0  0  0  0  0  0  0  0
    3.8827   -4.7441    5.2242 C   0  0  0  0  0  0  0  0  0  0  0  0
    4.4502   -4.6895    3.8991 C   0  0  0  0  0  0  0  0  0  0  0  0
    4.8479   -3.5338    3.3387 C   0  0  0  0  0  0  0  0  0  0  0  0
    5.4067   -3.3883    1.9270 C   0  0  2  0  0  0  0  0  0  0  0  0
    6.5408   -2.5157    1.8411 O   0  0  0  0  0  0  0  0  0  0  0  0
    6.4489   -1.6899    0.6737 C   0  0  2  0  0  0  0  0  0  0  0  0
    5.4996   -0.5755    1.0906 C   0  0  0  0  0  0  0  0  0  0  0  0
    4.1482   -1.2895    1.1654 C   0  0  1  0  0  0  0  0  0  0  0  0
    3.4375   -0.9424    2.4995 C   0  0  0  0  0  0  0  0  0  0  0  0
    3.3563   -0.6515    0.1929 O   0  0  0  0  0  0  0  0  0  0  0  0
    4.5428   -2.7922    0.7688 C   0  0  2  0  0  0  0  0  0  0  0  0
    3.3821   -3.6945    0.2125 C   0  0  1  0  0  0  0  0  0  0  0  0
    3.6397   -5.2181    0.2439 C   0  0  0  0  0  0  0  0  0  0  0  0
    2.2825   -3.5917    1.0760 O   0  0  0  0  0  0  0  0  0  0  0  0
    2.9419   -3.2806   -1.2290 C   0  0  0  0  0  0  0  0  0  0  0  0
    4.1043   -3.0747   -2.2316 C   0  0  1  0  0  0  0  0  0  0  0  0
    3.6229   -2.6192   -3.4767 O   0  0  0  0  0  0  0  0  0  0  0  0
    5.2457   -2.1579   -1.7145 C   0  0  1  0  0  0  0  0  0  0  0  0
    4.9271   -0.7958   -1.8976 O   0  0  0  0  0  0  0  0  0  0  0  0
    5.6983   -2.6181   -0.2772 C   0  0  1  0  0  0  0  0  0  0  0  0
    6.6743   -3.7985   -0.5749 C   0  0  0  0  0  0  0  0  0  0  0  0
    3.5962   -6.8340    5.2905 H   0  0  0  0  0  0  0  0  0  0  0  0
    3.0622   -5.8945    6.7951 H   0  0  0  0  0  0  0  0  0  0  0  0
    3.7519   -3.8257    5.7765 H   0  0  0  0  0  0  0  0  0  0  0  0
    4.5407   -5.6141    3.3406 H   0  0  0  0  0  0  0  0  0  0  0  0
    4.7777   -2.6382    3.9546 H   0  0  0  0  0  0  0  0  0  0  0  0
    5.7280   -4.3987    1.6736 H   0  0  0  0  0  0  0  0  0  0  0  0
    7.4255   -1.3385    0.3322 H   0  0  0  0  0  0  0  0  0  0  0  0
    5.8134   -0.1451    2.0406 H   0  0  0  0  0  0  0  0  0  0  0  0
    5.5018    0.2347    0.3742 H   0  0  0  0  0  0  0  0  0  0  0  0
    4.1245   -0.8983    3.3468 H   0  0  0  0  0  0  0  0  0  0  0  0
    2.6421   -1.6389    2.7603 H   0  0  0  0  0  0  0  0  0  0  0  0
    2.9796    0.0508    2.4462 H   0  0  0  0  0  0  0  0  0  0  0  0
    2.4457   -0.9780    0.2042 H   0  0  0  0  0  0  0  0  0  0  0  0
    4.4387   -5.5434   -0.4148 H   0  0  0  0  0  0  0  0  0  0  0  0
    2.7450   -5.7556   -0.0799 H   0  0  0  0  0  0  0  0  0  0  0  0
    3.8543   -5.5798    1.2446 H   0  0  0  0  0  0  0  0  0  0  0  0
    2.0042   -2.6727    1.1102 H   0  0  0  0  0  0  0  0  0  0  0  0
    2.2493   -4.0278   -1.6278 H   0  0  0  0  0  0  0  0  0  0  0  0
    2.3335   -2.3812   -1.2156 H   0  0  0  0  0  0  0  0  0  0  0  0
    4.5395   -4.0564   -2.4285 H   0  0  0  0  0  0  0  0  0  0  0  0
    3.0569   -1.8626   -3.3118 H   0  0  0  0  0  0  0  0  0  0  0  0
    6.0889   -2.2862   -2.3997 H   0  0  0  0  0  0  0  0  0  0  0  0
    4.2198   -0.5807   -1.2737 H   0  0  0  0  0  0  0  0  0  0  0  0
    6.1615   -4.6061   -1.0776 H   0  0  0  0  0  0  0  0  0  0  0  0
    7.2100   -4.2296    0.2685 H   0  0  0  0  0  0  0  0  0  0  0  0
    7.4802   -3.4702   -1.2359 H   0  0  0  0  0  0  0  0  0  0  0  0
  1  2  2  0
  1 23  1  0
  1 24  1  0
  2  3  1  0
  2 25  1  0
  3  4  2  3
  3 26  1  0
  4  5  1  0
  4 27  1  0
  5 12  1  0
  5  6  1  0
  5 28  1  6
  6  7  1  0
  7 21  1  0
  7  8  1  0
  7 29  1  6
  8  9  1  0
  8 30  1  0
  8 31  1  0
  9 10  1  0
  9 11  1  6
 12  9  1  1
 10 32  1  0
 10 33  1  0
 10 34  1  0
 11 35  1  0
 12 21  1  0
 12 13  1  0
 13 14  1  0
 13 15  1  1
 13 16  1  0
 14 36  1  0
 14 37  1  0
 14 38  1  0
 15 39  1  0
 16 17  1  0
 16 40  1  0
 16 41  1  0
 17 18  1  0
 17 19  1  0
 17 42  1  6
 18 43  1  0
 19 20  1  0
 19 21  1  0
 19 44  1  6
 20 45  1  0
 21 22  1  6
 22 46  1  0
 22 47  1  0
 22 48  1  0
M  END
>  <i_m_ct_stereo_status>  (138) 
1

>  <s_m_source_file>  (138) 
/var/tmp/pbs.5076255.sched01/tmpmmp70uc3/38qnywpnyg.sdf

>  <i_m_source_file_index>  (138) 
25

>  <i_lp_mmshare_version>  (138) 
48012

>  <i_f3d_flags>  (138) 
0

>  <s_epik_input>  (138) 
W0NIMl09W0NIXS9bQ0hdPVtDSF1cW0NAQEhdMU9bQ0BIXShbQ0gyXVtDQEBdMihbQ0gzXSlbT0hdKVtDQF0oW0NAQF0xMjMpKFtDSDNdKVtDQEhdKFtPSF0pW0NASF0oW09IXSlbQ0gyXVtDQF0zKFtDSDNdKVtPSF0=

>  <s_epik_cmdline>  (138) 
J2VwaWtfcHl0aG9uJywgJy1waHQnLCAnMi4wJywgJy1waCcsICc3LjAnLCAnLXRuJywgJzgnLCAnLW1hJywgJzIwMCcsICctaW1hZScsICc8aW5maWxlLm1hZT4nLCAnLW9tYWUnLCAnPG91dGZpbGUubWFlPic=

>  <r_lp_tautomer_probability>  (138) 
1

>  <r_epik_Ionization_Penalty>  (138) 
5.80208e-07

>  <r_epik_Ionization_Penalty_Charging>  (138) 
0

>  <r_epik_Ionization_Penalty_Neutral>  (138) 
5.80208e-07

>  <r_epik_State_Penalty>  (138) 
-0

>  <r_epik_Charging_Adjusted_Penalty>  (138) 
0

>  <i_epik_Tot_Q>  (138) 
0

>  <i_epik_Tot_abs_Q>  (138) 
0

>  <s_lp_Force_Field>  (138) 
OPLS3e

>  <r_lp_Energy>  (138) 
56.853

>  <b_lp_Chiralities_Consistent>  (138) 
1

>  <s_lp_Variant>  (138) 
44:0-2

>  <s_i_glide_gridfile>  (138) 
pfpi4k_grid

>  <i_i_glide_lignum>  (138) 
25

>  <i_i_glide_rotatable_bonds>  (138) 
6

>  <r_i_docking_score>  (138) 
-3.50493

>  <r_i_glide_ligand_efficiency>  (138) 
-0.159315

>  <r_i_glide_ligand_efficiency_sa>  (138) 
-0.446407

>  <r_i_glide_ligand_efficiency_ln>  (138) 
-0.856733

>  <r_i_glide_gscore>  (138) 
-3.50493

>  <r_i_glide_lipo>  (138) 
-0.415392

>  <r_i_glide_hbond>  (138) 
0

>  <r_i_glide_metal>  (138) 
-0

>  <r_i_glide_rewards>  (138) 
-1.79283

>  <r_i_glide_evdw>  (138) 
-16.1127

>  <r_i_glide_ecoul>  (138) 
-5.8384

>  <r_i_glide_erotb>  (138) 
0.384683

>  <r_i_glide_esite>  (138) 
0

>  <r_i_glide_emodel>  (138) 
-33.7087

>  <r_i_glide_energy>  (138) 
-21.9511

>  <r_i_glide_einternal>  (138) 
0.419577

>  <r_i_glide_intrahb_reward>  (138) 
-0.5

>  <i_i_glide_confnum>  (138) 
4

>  <i_i_glide_posenum>  (138) 
20

>  <r_i_glide_eff_state_penalty>  (138) 
0

>  <ligand_id>  (138) 
44

>  <original_smiles>  (138) 
C=CC=CC1OC2CC(C)(O)C13C(C)(O)CC(O)C(O)C23C

>  <smiles>  (138) 
[H]OC1([H])C([H])([H])C(O[H])(C([H])([H])[H])C23C([H])(C([H])=C([H])C([H])=C([H])[H])OC([H])(C([H])([H])C2(O[H])C([H])([H])[H])C3(C([H])([H])[H])C1([H])O[H]

$$$$
44:1:2
     RDKit          3D

 48 50  0  0  1  0  0  0  0  0999 V2000
    5.0764   -6.5402    5.4832 C   0  0  0  0  0  0  0  0  0  0  0  0
    5.1168   -5.3048    4.9643 C   0  0  0  0  0  0  0  0  0  0  0  0
    5.4215   -5.0462    3.5757 C   0  0  0  0  0  0  0  0  0  0  0  0
    5.5016   -3.8120    3.0755 C   0  0  0  0  0  0  0  0  0  0  0  0
    5.7834   -3.4456    1.6250 C   0  0  2  0  0  0  0  0  0  0  0  0
    6.7523   -2.3988    1.4788 O   0  0  0  0  0  0  0  0  0  0  0  0
    6.3479   -1.5030    0.4294 C   0  0  2  0  0  0  0  0  0  0  0  0
    5.3510   -0.5731    1.1080 C   0  0  0  0  0  0  0  0  0  0  0  0
    4.1586   -1.5047    1.3254 C   0  0  1  0  0  0  0  0  0  0  0  0
    3.6362   -1.3958    2.7816 C   0  0  0  0  0  0  0  0  0  0  0  0
    3.1047   -0.9422    0.5912 O   0  0  0  0  0  0  0  0  0  0  0  0
    4.6690   -2.8917    0.6997 C   0  0  2  0  0  0  0  0  0  0  0  0
    3.5619   -3.9095    0.2466 C   0  0  1  0  0  0  0  0  0  0  0  0
    4.0258   -5.3771    0.0757 C   0  0  0  0  0  0  0  0  0  0  0  0
    2.5943   -3.9941    1.2598 O   0  0  0  0  0  0  0  0  0  0  0  0
    2.8163   -3.4566   -1.0498 C   0  0  0  0  0  0  0  0  0  0  0  0
    3.7475   -2.9953   -2.2007 C   0  0  1  0  0  0  0  0  0  0  0  0
    2.9846   -2.5097   -3.2842 O   0  0  0  0  0  0  0  0  0  0  0  0
    4.8262   -1.9685   -1.7803 C   0  0  1  0  0  0  0  0  0  0  0  0
    4.2909   -0.6646   -1.7563 O   0  0  0  0  0  0  0  0  0  0  0  0
    5.5872   -2.4588   -0.4973 C   0  0  1  0  0  0  0  0  0  0  0  0
    6.6599   -3.4505   -1.0935 C   0  0  0  0  0  0  0  0  0  0  0  0
    5.2808   -7.4072    4.8726 H   0  0  0  0  0  0  0  0  0  0  0  0
    4.8301   -6.6989    6.5244 H   0  0  0  0  0  0  0  0  0  0  0  0
    4.8998   -4.4714    5.6178 H   0  0  0  0  0  0  0  0  0  0  0  0
    5.5947   -5.8845    2.9252 H   0  0  0  0  0  0  0  0  0  0  0  0
    5.3644   -2.9863    3.7937 H   0  0  0  0  0  0  0  0  0  0  0  0
    6.2031   -4.3625    1.2190 H   0  0  0  0  0  0  0  0  0  0  0  0
    7.2014   -0.9815   -0.0011 H   0  0  0  0  0  0  0  0  0  0  0  0
    5.7639   -0.1838    2.0357 H   0  0  0  0  0  0  0  0  0  0  0  0
    5.1028    0.2900    0.4887 H   0  0  0  0  0  0  0  0  0  0  0  0
    4.4491   -1.3240    3.5106 H   0  0  0  0  0  0  0  0  0  0  0  0
    3.0009   -2.2220    3.0774 H   0  0  0  0  0  0  0  0  0  0  0  0
    3.0548   -0.4853    2.9311 H   0  0  0  0  0  0  0  0  0  0  0  0
    2.3416   -1.5081    0.6548 H   0  0  0  0  0  0  0  0  0  0  0  0
    4.7342   -5.5043   -0.7328 H   0  0  0  0  0  0  0  0  0  0  0  0
    3.1779   -6.0128   -0.1581 H   0  0  0  0  0  0  0  0  0  0  0  0
    4.4714   -5.7906    0.9821 H   0  0  0  0  0  0  0  0  0  0  0  0
    3.0416   -4.2395    2.0747 H   0  0  0  0  0  0  0  0  0  0  0  0
    2.1666   -4.2543   -1.4155 H   0  0  0  0  0  0  0  0  0  0  0  0
    2.1253   -2.6511   -0.8196 H   0  0  0  0  0  0  0  0  0  0  0  0
    4.2563   -3.8833   -2.5798 H   0  0  0  0  0  0  0  0  0  0  0  0
    2.4027   -1.8181   -2.9498 H   0  0  0  0  0  0  0  0  0  0  0  0
    5.5361   -1.8971   -2.6073 H   0  0  0  0  0  0  0  0  0  0  0  0
    3.6463   -0.6444   -1.0407 H   0  0  0  0  0  0  0  0  0  0  0  0
    6.2183   -4.2560   -1.6367 H   0  0  0  0  0  0  0  0  0  0  0  0
    7.3787   -3.8613   -0.3946 H   0  0  0  0  0  0  0  0  0  0  0  0
    7.2856   -2.9212   -1.8176 H   0  0  0  0  0  0  0  0  0  0  0  0
  1  2  2  0
  1 23  1  0
  1 24  1  0
  2  3  1  0
  2 25  1  0
  3  4  2  3
  3 26  1  0
  4  5  1  0
  4 27  1  0
  5 12  1  0
  5  6  1  0
  5 28  1  6
  6  7  1  0
  7 21  1  0
  7  8  1  0
  7 29  1  6
  8  9  1  0
  8 30  1  0
  8 31  1  0
  9 10  1  0
  9 11  1  6
 12  9  1  1
 10 32  1  0
 10 33  1  0
 10 34  1  0
 11 35  1  0
 12 21  1  0
 12 13  1  0
 13 14  1  0
 13 15  1  1
 13 16  1  0
 14 36  1  0
 14 37  1  0
 14 38  1  0
 15 39  1  0
 16 17  1  0
 16 40  1  0
 16 41  1  0
 17 18  1  0
 17 19  1  0
 17 42  1  6
 18 43  1  0
 19 20  1  0
 19 21  1  0
 19 44  1  6
 20 45  1  0
 21 22  1  6
 22 46  1  0
 22 47  1  0
 22 48  1  0
M  END
>  <i_m_ct_stereo_status>  (139) 
1

>  <s_m_source_file>  (139) 
/var/tmp/pbs.5076255.sched01/tmpmmp70uc3/38qnywpnyg.sdf

>  <i_m_source_file_index>  (139) 
25

>  <i_lp_mmshare_version>  (139) 
48012

>  <i_f3d_flags>  (139) 
0

>  <s_epik_input>  (139) 
W0NIMl09W0NIXS9bQ0hdPVtDSF1cW0NAQEhdMU9bQ0BIXShbQ0gyXVtDQEBdMihbQ0gzXSlbT0hdKVtDQF0oW0NAQF0xMjMpKFtDSDNdKVtDQEhdKFtPSF0pW0NASF0oW09IXSlbQ0gyXVtDQF0zKFtDSDNdKVtPSF0=

>  <s_epik_cmdline>  (139) 
J2VwaWtfcHl0aG9uJywgJy1waHQnLCAnMi4wJywgJy1waCcsICc3LjAnLCAnLXRuJywgJzgnLCAnLW1hJywgJzIwMCcsICctaW1hZScsICc8aW5maWxlLm1hZT4nLCAnLW9tYWUnLCAnPG91dGZpbGUubWFlPic=

>  <r_lp_tautomer_probability>  (139) 
1

>  <r_epik_Ionization_Penalty>  (139) 
5.80208e-07

>  <r_epik_Ionization_Penalty_Charging>  (139) 
0

>  <r_epik_Ionization_Penalty_Neutral>  (139) 
5.80208e-07

>  <r_epik_State_Penalty>  (139) 
-0

>  <r_epik_Charging_Adjusted_Penalty>  (139) 
0

>  <i_epik_Tot_Q>  (139) 
0

>  <i_epik_Tot_abs_Q>  (139) 
0

>  <s_lp_Force_Field>  (139) 
OPLS3e

>  <r_lp_Energy>  (139) 
56.853

>  <b_lp_Chiralities_Consistent>  (139) 
1

>  <s_lp_Variant>  (139) 
44:0-2

>  <s_i_glide_gridfile>  (139) 
pfpi4k_grid

>  <i_i_glide_lignum>  (139) 
25

>  <i_i_glide_rotatable_bonds>  (139) 
6

>  <r_i_docking_score>  (139) 
-3.18509

>  <r_i_glide_ligand_efficiency>  (139) 
-0.144777

>  <r_i_glide_ligand_efficiency_sa>  (139) 
-0.40567

>  <r_i_glide_ligand_efficiency_ln>  (139) 
-0.778552

>  <r_i_glide_gscore>  (139) 
-3.18509

>  <r_i_glide_lipo>  (139) 
-0.459651

>  <r_i_glide_hbond>  (139) 
0

>  <r_i_glide_metal>  (139) 
-0

>  <r_i_glide_rewards>  (139) 
-1.79283

>  <r_i_glide_evdw>  (139) 
-20.5089

>  <r_i_glide_ecoul>  (139) 
-1.94567

>  <r_i_glide_erotb>  (139) 
0.384683

>  <r_i_glide_esite>  (139) 
0

>  <r_i_glide_emodel>  (139) 
-33.4549

>  <r_i_glide_energy>  (139) 
-22.4545

>  <r_i_glide_einternal>  (139) 
0.580019

>  <r_i_glide_intrahb_reward>  (139) 
-0.5

>  <i_i_glide_confnum>  (139) 
4

>  <i_i_glide_posenum>  (139) 
24

>  <r_i_glide_eff_state_penalty>  (139) 
0

>  <ligand_id>  (139) 
44

>  <original_smiles>  (139) 
C=CC=CC1OC2CC(C)(O)C13C(C)(O)CC(O)C(O)C23C

>  <smiles>  (139) 
[H]OC1([H])C([H])([H])C(O[H])(C([H])([H])[H])C23C([H])(C([H])=C([H])C([H])=C([H])[H])OC([H])(C([H])([H])C2(O[H])C([H])([H])[H])C3(C([H])([H])[H])C1([H])O[H]

$$$$
46:0:0
     RDKit          3D

 57 62  0  0  1  0  0  0  0  0999 V2000
    3.5921   -0.7292    3.3507 C   0  0  0  0  0  0  0  0  0  0  0  0
    3.2165   -1.7853    2.2961 C   0  0  2  0  0  0  0  0  0  0  0  0
    2.1425   -2.7703    2.8769 C   0  0  0  0  0  0  0  0  0  0  0  0
    2.6056   -4.2442    3.1049 C   0  0  0  0  0  0  0  0  0  0  0  0
    3.0181   -4.8751    1.7587 C   0  0  2  0  0  0  0  0  0  0  0  0
    3.7560   -6.2667    1.7265 C   0  0  0  0  0  0  0  0  0  0  0  0
    4.8831   -6.3227    0.5971 C   0  0  0  0  0  0  0  0  0  0  0  0
    5.7419   -4.9654    0.4332 C   0  0  2  0  0  0  0  0  0  0  0  0
    5.1640   -4.3649    1.4538 O   0  0  0  0  0  0  0  0  0  0  0  0
    3.9215   -3.8958    1.0076 C   0  0  1  0  0  0  0  0  0  0  0  0
    3.5674   -4.1420   -0.6077 C   0  0  2  0  0  0  0  0  0  0  0  0
    4.8045   -4.3978   -1.5965 C   0  0  0  0  0  0  0  0  0  0  0  0
    5.7836   -3.7584   -0.7289 C   0  0  2  0  0  0  0  0  0  0  0  0
    7.2317   -3.3407   -0.5960 C   0  0  0  0  0  0  0  0  0  0  0  0
    7.1919   -2.6727    0.8623 C   0  0  0  0  0  0  0  0  0  0  0  0
    5.8602   -1.9080    1.3776 C   0  0  1  0  0  0  0  0  0  0  0  0
    5.7199   -0.7547    0.4749 C   0  0  0  0  0  0  0  0  0  0  0  0
    5.6565    0.3653    0.8782 O   0  0  0  0  0  0  0  0  0  0  0  0
    5.7702   -1.0647   -0.7840 O   0  0  0  0  0  0  0  0  0  0  0  0
    5.1792   -2.2748   -1.2017 C   0  0  2  0  0  0  0  0  0  0  0  0
    3.6678   -1.8708   -1.3813 C   0  0  1  0  0  0  0  0  0  0  0  0
    3.4468   -1.0578   -2.6755 C   0  0  0  0  0  0  0  0  0  0  0  0
    2.7201   -3.0431   -1.1732 C   0  0  1  0  0  0  0  0  0  0  0  0
    1.9175   -3.4609   -2.4088 C   0  0  0  0  0  0  0  0  0  0  0  0
    4.4347   -2.5938    1.7808 C   0  0  1  0  0  0  0  0  0  0  0  0
    4.0731   -1.1758    4.2264 H   0  0  0  0  0  0  0  0  0  0  0  0
    2.7147   -0.1814    3.7033 H   0  0  0  0  0  0  0  0  0  0  0  0
    4.2748    0.0175    2.9499 H   0  0  0  0  0  0  0  0  0  0  0  0
    2.7428   -1.2462    1.4775 H   0  0  0  0  0  0  0  0  0  0  0  0
    1.7381   -2.3884    3.8157 H   0  0  0  0  0  0  0  0  0  0  0  0
    1.3025   -2.7810    2.1848 H   0  0  0  0  0  0  0  0  0  0  0  0
    3.4117   -4.2887    3.8352 H   0  0  0  0  0  0  0  0  0  0  0  0
    1.7799   -4.8182    3.5266 H   0  0  0  0  0  0  0  0  0  0  0  0
    2.0815   -4.9841    1.2169 H   0  0  0  0  0  0  0  0  0  0  0  0
    4.2316   -6.4162    2.6991 H   0  0  0  0  0  0  0  0  0  0  0  0
    3.0402   -7.0839    1.5968 H   0  0  0  0  0  0  0  0  0  0  0  0
    5.5779   -7.1081    0.8782 H   0  0  0  0  0  0  0  0  0  0  0  0
    4.4436   -6.7055   -0.3214 H   0  0  0  0  0  0  0  0  0  0  0  0
    6.7420   -5.2781    0.7264 H   0  0  0  0  0  0  0  0  0  0  0  0
    2.9543   -5.0325   -0.7066 H   0  0  0  0  0  0  0  0  0  0  0  0
    5.0045   -5.4389   -1.7911 H   0  0  0  0  0  0  0  0  0  0  0  0
    4.6810   -3.9949   -2.6080 H   0  0  0  0  0  0  0  0  0  0  0  0
    7.9484   -4.1640   -0.6298 H   0  0  0  0  0  0  0  0  0  0  0  0
    7.5597   -2.6443   -1.3695 H   0  0  0  0  0  0  0  0  0  0  0  0
    7.4816   -3.4021    1.6181 H   0  0  0  0  0  0  0  0  0  0  0  0
    8.0107   -1.9525    0.8678 H   0  0  0  0  0  0  0  0  0  0  0  0
    6.1727   -1.4544    2.3102 H   0  0  0  0  0  0  0  0  0  0  0  0
    5.5481   -2.2404   -2.2365 H   0  0  0  0  0  0  0  0  0  0  0  0
    3.3755   -1.1821   -0.5947 H   0  0  0  0  0  0  0  0  0  0  0  0
    3.6611   -1.6293   -3.5813 H   0  0  0  0  0  0  0  0  0  0  0  0
    4.0751   -0.1634   -2.6881 H   0  0  0  0  0  0  0  0  0  0  0  0
    2.4175   -0.7022   -2.7242 H   0  0  0  0  0  0  0  0  0  0  0  0
    1.9903   -2.7811   -0.4072 H   0  0  0  0  0  0  0  0  0  0  0  0
    2.5272   -3.7307   -3.2800 H   0  0  0  0  0  0  0  0  0  0  0  0
    1.2535   -2.6678   -2.7314 H   0  0  0  0  0  0  0  0  0  0  0  0
    1.2900   -4.3211   -2.1536 H   0  0  0  0  0  0  0  0  0  0  0  0
    4.7455   -2.8905    2.7985 H   0  0  0  0  0  0  0  0  0  0  0  0
  1  2  1  0
  1 26  1  0
  1 27  1  0
  1 28  1  0
  2 25  1  0
  2  3  1  0
  2 29  1  6
  3  4  1  0
  3 30  1  0
  3 31  1  0
  4  5  1  0
  4 32  1  0
  4 33  1  0
  5 10  1  0
  5  6  1  0
  5 34  1  6
  6  7  1  0
  6 35  1  0
  6 36  1  0
  7  8  1  0
  7 37  1  0
  7 38  1  0
  8 13  1  0
  8  9  1  0
  8 39  1  1
 10  9  1  6
 10 25  1  0
 10 11  1  0
 11 23  1  0
 11 12  1  0
 11 40  1  1
 13 12  1  6
 12 41  1  0
 12 42  1  0
 13 20  1  0
 13 14  1  0
 14 15  1  0
 14 43  1  0
 14 44  1  0
 15 16  1  0
 15 45  1  0
 15 46  1  0
 16 17  1  0
 16 25  1  0
 16 47  1  1
 17 18  2  0
 17 19  1  0
 19 20  1  0
 20 21  1  0
 20 48  1  6
 21 22  1  0
 21 23  1  0
 21 49  1  1
 22 50  1  0
 22 51  1  0
 22 52  1  0
 23 24  1  0
 23 53  1  1
 24 54  1  0
 24 55  1  0
 24 56  1  0
 25 57  1  1
M  END
>  <i_m_ct_stereo_status>  (140) 
1

>  <s_m_source_file>  (140) 
/var/tmp/pbs.5076255.sched01/tmpmmp70uc3/38qnywpnyg.sdf

>  <i_m_source_file_index>  (140) 
27

>  <i_lp_mmshare_version>  (140) 
48012

>  <i_f3d_flags>  (140) 
0

>  <s_epik_input>  (140) 
W0NAXTEyM1tDQEBIXTRbQ0gyXVtDSDJdW0NAQEhdKFtDSDNdKVtDQEBIXTNbQ0BIXTVbQ0gyXVtDSDJdQzYoW0NAQEhdKE8xKVtDSDJdW0NIMl00KVtDQEhdKE9DNT1PKVtDQEBIXShbQ0gzXSlbQ0BASF0oW0NIM10pW0NASF0yW0NIMl02

>  <s_epik_cmdline>  (140) 
J2VwaWtfcHl0aG9uJywgJy1waHQnLCAnMi4wJywgJy1waCcsICc3LjAnLCAnLXRuJywgJzgnLCAnLW1hJywgJzIwMCcsICctaW1hZScsICc8aW5maWxlLm1hZT4nLCAnLW9tYWUnLCAnPG91dGZpbGUubWFlPic=

>  <r_lp_tautomer_probability>  (140) 
1

>  <r_epik_Ionization_Penalty>  (140) 
3.26772e-11

>  <r_epik_Ionization_Penalty_Charging>  (140) 
0

>  <r_epik_Ionization_Penalty_Neutral>  (140) 
3.26772e-11

>  <r_epik_State_Penalty>  (140) 
-0

>  <r_epik_Charging_Adjusted_Penalty>  (140) 
0

>  <i_epik_Tot_Q>  (140) 
0

>  <i_epik_Tot_abs_Q>  (140) 
0

>  <s_epik_Chemistry_Notes>  (140) 
This compound has an ester and may undergo hydrolysis at high or low pH.

>  <s_lp_Force_Field>  (140) 
OPLS3e

>  <r_lp_Energy>  (140) 
305.051

>  <b_lp_Chiralities_Consistent>  (140) 
1

>  <s_lp_Variant>  (140) 
46:0-1

>  <s_i_glide_gridfile>  (140) 
pfpi4k_grid

>  <i_i_glide_lignum>  (140) 
27

>  <i_i_glide_rotatable_bonds>  (140) 
0

>  <r_i_docking_score>  (140) 
-3.34663

>  <r_i_glide_ligand_efficiency>  (140) 
-0.133865

>  <r_i_glide_ligand_efficiency_sa>  (140) 
-0.391425

>  <r_i_glide_ligand_efficiency_ln>  (140) 
-0.793252

>  <r_i_glide_gscore>  (140) 
-3.34663

>  <r_i_glide_lipo>  (140) 
-0.947682

>  <r_i_glide_hbond>  (140) 
-0.272747

>  <r_i_glide_metal>  (140) 
-0

>  <r_i_glide_rewards>  (140) 
-1.23496

>  <r_i_glide_evdw>  (140) 
-12.8363

>  <r_i_glide_ecoul>  (140) 
-1.66285

>  <r_i_glide_erotb>  (140) 
0

>  <r_i_glide_esite>  (140) 
0

>  <r_i_glide_emodel>  (140) 
-18.2619

>  <r_i_glide_energy>  (140) 
-14.4991

>  <r_i_glide_einternal>  (140) 
0

>  <r_i_glide_intrahb_reward>  (140) 
-0

>  <i_i_glide_confnum>  (140) 
1

>  <i_i_glide_posenum>  (140) 
2

>  <r_i_glide_eff_state_penalty>  (140) 
0

>  <ligand_id>  (140) 
46

>  <original_smiles>  (140) 
CC1CCC2CCC3OC24C2CC35CCC(C(=O)OC5C(C)C2C)C14

>  <smiles>  (140) 
[H]C([H])([H])C1([H])C([H])([H])C([H])([H])C2([H])C([H])([H])C([H])([H])C3([H])OC24C2([H])C([H])([H])C35C([H])([H])C([H])([H])C([H])(C(=O)OC5([H])C([H])(C([H])([H])[H])C2([H])C([H])([H])[H])C14[H]

$$$$
46:0:1
     RDKit          3D

 57 62  0  0  1  0  0  0  0  0999 V2000
    4.1882   -6.3172    3.1453 C   0  0  0  0  0  0  0  0  0  0  0  0
    4.8027   -5.7298    1.8594 C   0  0  2  0  0  0  0  0  0  0  0  0
    6.0925   -6.5305    1.4828 C   0  0  0  0  0  0  0  0  0  0  0  0
    7.4545   -5.7727    1.5868 C   0  0  0  0  0  0  0  0  0  0  0  0
    7.4404   -4.5543    0.6445 C   0  0  2  0  0  0  0  0  0  0  0  0
    8.5925   -3.4837    0.6830 C   0  0  0  0  0  0  0  0  0  0  0  0
    8.0339   -2.0010    0.4467 C   0  0  0  0  0  0  0  0  0  0  0  0
    6.5986   -1.6898    1.1252 C   0  0  2  0  0  0  0  0  0  0  0  0
    6.5030   -2.8685    1.6992 O   0  0  0  0  0  0  0  0  0  0  0  0
    6.1098   -3.8081    0.7543 C   0  0  1  0  0  0  0  0  0  0  0  0
    5.7906   -3.1968   -0.7802 C   0  0  2  0  0  0  0  0  0  0  0  0
    5.4680   -1.6145   -0.8849 C   0  0  0  0  0  0  0  0  0  0  0  0
    5.0420   -1.5055    0.5260 C   0  0  2  0  0  0  0  0  0  0  0  0
    4.5042   -0.5813    1.6071 C   0  0  0  0  0  0  0  0  0  0  0  0
    4.4545   -1.5610    2.8838 C   0  0  0  0  0  0  0  0  0  0  0  0
    4.1429   -3.1424    2.6951 C   0  0  1  0  0  0  0  0  0  0  0  0
    2.7202   -3.1950    2.2220 C   0  0  0  0  0  0  0  0  0  0  0  0
    1.8271   -3.7355    2.8729 O   0  0  0  0  0  0  0  0  0  0  0  0
    2.5394   -2.4686    1.1365 O   0  0  0  0  0  0  0  0  0  0  0  0
    3.5943   -2.2890    0.1943 C   0  0  2  0  0  0  0  0  0  0  0  0
    3.4180   -3.5226   -0.7760 C   0  0  1  0  0  0  0  0  0  0  0  0
    2.2155   -3.3401   -1.7207 C   0  0  0  0  0  0  0  0  0  0  0  0
    4.6985   -3.9617   -1.4718 C   0  0  1  0  0  0  0  0  0  0  0  0
    4.7619   -3.7926   -3.0155 C   0  0  0  0  0  0  0  0  0  0  0  0
    5.1372   -4.2208    1.9716 C   0  0  1  0  0  0  0  0  0  0  0  0
    4.8629   -6.2207    3.9959 H   0  0  0  0  0  0  0  0  0  0  0  0
    3.9615   -7.3772    3.0187 H   0  0  0  0  0  0  0  0  0  0  0  0
    3.2522   -5.8262    3.3993 H   0  0  0  0  0  0  0  0  0  0  0  0
    4.0774   -5.8854    1.0668 H   0  0  0  0  0  0  0  0  0  0  0  0
    6.1608   -7.4616    2.0440 H   0  0  0  0  0  0  0  0  0  0  0  0
    5.9595   -6.8402    0.4499 H   0  0  0  0  0  0  0  0  0  0  0  0
    7.6631   -5.4932    2.6219 H   0  0  0  0  0  0  0  0  0  0  0  0
    8.2568   -6.4408    1.2829 H   0  0  0  0  0  0  0  0  0  0  0  0
    7.4972   -5.0144   -0.3167 H   0  0  0  0  0  0  0  0  0  0  0  0
    9.0716   -3.5501    1.6627 H   0  0  0  0  0  0  0  0  0  0  0  0
    9.3683   -3.7134   -0.0432 H   0  0  0  0  0  0  0  0  0  0  0  0
    8.7622   -1.3053    0.8685 H   0  0  0  0  0  0  0  0  0  0  0  0
    8.1018   -1.8055   -0.6145 H   0  0  0  0  0  0  0  0  0  0  0  0
    6.8417   -0.9601    1.8956 H   0  0  0  0  0  0  0  0  0  0  0  0
    6.6738   -3.3399   -1.3988 H   0  0  0  0  0  0  0  0  0  0  0  0
    6.2956   -0.9704   -1.1212 H   0  0  0  0  0  0  0  0  0  0  0  0
    4.7214   -1.3478   -1.6330 H   0  0  0  0  0  0  0  0  0  0  0  0
    5.1382    0.2815    1.8003 H   0  0  0  0  0  0  0  0  0  0  0  0
    3.5244   -0.1648    1.3652 H   0  0  0  0  0  0  0  0  0  0  0  0
    5.3699   -1.4675    3.4683 H   0  0  0  0  0  0  0  0  0  0  0  0
    3.7010   -1.1462    3.5551 H   0  0  0  0  0  0  0  0  0  0  0  0
    4.0686   -3.5154    3.7124 H   0  0  0  0  0  0  0  0  0  0  0  0
    3.1197   -1.4857   -0.3743 H   0  0  0  0  0  0  0  0  0  0  0  0
    3.1439   -4.3741   -0.1592 H   0  0  0  0  0  0  0  0  0  0  0  0
    2.3569   -2.5012   -2.4063 H   0  0  0  0  0  0  0  0  0  0  0  0
    1.3189   -3.1285   -1.1426 H   0  0  0  0  0  0  0  0  0  0  0  0
    1.9988   -4.2342   -2.3004 H   0  0  0  0  0  0  0  0  0  0  0  0
    4.8546   -5.0223   -1.2627 H   0  0  0  0  0  0  0  0  0  0  0  0
    4.5851   -2.7683   -3.3517 H   0  0  0  0  0  0  0  0  0  0  0  0
    4.0344   -4.4144   -3.5361 H   0  0  0  0  0  0  0  0  0  0  0  0
    5.7367   -4.1038   -3.3915 H   0  0  0  0  0  0  0  0  0  0  0  0
    5.7640   -4.3648    2.8658 H   0  0  0  0  0  0  0  0  0  0  0  0
  1  2  1  0
  1 26  1  0
  1 27  1  0
  1 28  1  0
  2 25  1  0
  2  3  1  0
  2 29  1  6
  3  4  1  0
  3 30  1  0
  3 31  1  0
  4  5  1  0
  4 32  1  0
  4 33  1  0
  5 10  1  0
  5  6  1  0
  5 34  1  6
  6  7  1  0
  6 35  1  0
  6 36  1  0
  7  8  1  0
  7 37  1  0
  7 38  1  0
  8 13  1  0
  8  9  1  0
  8 39  1  1
 10  9  1  1
 10 25  1  0
 10 11  1  0
 11 23  1  0
 11 12  1  0
 11 40  1  6
 13 12  1  6
 12 41  1  0
 12 42  1  0
 13 20  1  0
 13 14  1  0
 14 15  1  0
 14 43  1  0
 14 44  1  0
 15 16  1  0
 15 45  1  0
 15 46  1  0
 16 17  1  0
 16 25  1  0
 16 47  1  1
 17 18  2  0
 17 19  1  0
 19 20  1  0
 20 21  1  0
 20 48  1  6
 21 22  1  0
 21 23  1  0
 21 49  1  1
 22 50  1  0
 22 51  1  0
 22 52  1  0
 23 24  1  0
 23 53  1  6
 24 54  1  0
 24 55  1  0
 24 56  1  0
 25 57  1  1
M  END
>  <i_m_ct_stereo_status>  (141) 
1

>  <s_m_source_file>  (141) 
/var/tmp/pbs.5076255.sched01/tmpmmp70uc3/38qnywpnyg.sdf

>  <i_m_source_file_index>  (141) 
27

>  <i_lp_mmshare_version>  (141) 
48012

>  <i_f3d_flags>  (141) 
0

>  <s_epik_input>  (141) 
W0NAXTEyM1tDQEBIXTRbQ0gyXVtDSDJdW0NAQEhdKFtDSDNdKVtDQEBIXTNbQ0BIXTVbQ0gyXVtDSDJdQzYoW0NAQEhdKE8xKVtDSDJdW0NIMl00KVtDQEhdKE9DNT1PKVtDQEBIXShbQ0gzXSlbQ0BASF0oW0NIM10pW0NASF0yW0NIMl02

>  <s_epik_cmdline>  (141) 
J2VwaWtfcHl0aG9uJywgJy1waHQnLCAnMi4wJywgJy1waCcsICc3LjAnLCAnLXRuJywgJzgnLCAnLW1hJywgJzIwMCcsICctaW1hZScsICc8aW5maWxlLm1hZT4nLCAnLW9tYWUnLCAnPG91dGZpbGUubWFlPic=

>  <r_lp_tautomer_probability>  (141) 
1

>  <r_epik_Ionization_Penalty>  (141) 
3.26772e-11

>  <r_epik_Ionization_Penalty_Charging>  (141) 
0

>  <r_epik_Ionization_Penalty_Neutral>  (141) 
3.26772e-11

>  <r_epik_State_Penalty>  (141) 
-0

>  <r_epik_Charging_Adjusted_Penalty>  (141) 
0

>  <i_epik_Tot_Q>  (141) 
0

>  <i_epik_Tot_abs_Q>  (141) 
0

>  <s_epik_Chemistry_Notes>  (141) 
This compound has an ester and may undergo hydrolysis at high or low pH.

>  <s_lp_Force_Field>  (141) 
OPLS3e

>  <r_lp_Energy>  (141) 
305.051

>  <b_lp_Chiralities_Consistent>  (141) 
1

>  <s_lp_Variant>  (141) 
46:0-1

>  <s_i_glide_gridfile>  (141) 
pfpi4k_grid

>  <i_i_glide_lignum>  (141) 
27

>  <i_i_glide_rotatable_bonds>  (141) 
0

>  <r_i_docking_score>  (141) 
-3.12742

>  <r_i_glide_ligand_efficiency>  (141) 
-0.125097

>  <r_i_glide_ligand_efficiency_sa>  (141) 
-0.365785

>  <r_i_glide_ligand_efficiency_ln>  (141) 
-0.741292

>  <r_i_glide_gscore>  (141) 
-3.12742

>  <r_i_glide_lipo>  (141) 
-1.20405

>  <r_i_glide_hbond>  (141) 
0

>  <r_i_glide_metal>  (141) 
-0

>  <r_i_glide_rewards>  (141) 
-1.06031

>  <r_i_glide_evdw>  (141) 
-22.6601

>  <r_i_glide_ecoul>  (141) 
1.8235

>  <r_i_glide_erotb>  (141) 
0

>  <r_i_glide_esite>  (141) 
-0.00357468

>  <r_i_glide_emodel>  (141) 
-24.5038

>  <r_i_glide_energy>  (141) 
-20.8366

>  <r_i_glide_einternal>  (141) 
0

>  <r_i_glide_intrahb_reward>  (141) 
-0

>  <i_i_glide_confnum>  (141) 
1

>  <i_i_glide_posenum>  (141) 
20

>  <r_i_glide_eff_state_penalty>  (141) 
0

>  <ligand_id>  (141) 
46

>  <original_smiles>  (141) 
CC1CCC2CCC3OC24C2CC35CCC(C(=O)OC5C(C)C2C)C14

>  <smiles>  (141) 
[H]C([H])([H])C1([H])C([H])([H])C([H])([H])C2([H])C([H])([H])C([H])([H])C3([H])OC24C2([H])C([H])([H])C35C([H])([H])C([H])([H])C([H])(C(=O)OC5([H])C([H])(C([H])([H])[H])C2([H])C([H])([H])[H])C14[H]

$$$$
46:0:2
     RDKit          3D

 57 62  0  0  1  0  0  0  0  0999 V2000
    7.3151   -7.6599    4.1140 C   0  0  0  0  0  0  0  0  0  0  0  0
    6.2510   -7.0693    3.1648 C   0  0  2  0  0  0  0  0  0  0  0  0
    6.8154   -6.9771    1.6994 C   0  0  0  0  0  0  0  0  0  0  0  0
    7.0562   -5.5388    1.1380 C   0  0  0  0  0  0  0  0  0  0  0  0
    5.7184   -4.7672    1.0966 C   0  0  2  0  0  0  0  0  0  0  0  0
    5.6972   -3.2228    0.7908 C   0  0  0  0  0  0  0  0  0  0  0  0
    4.5867   -2.4508    1.6423 C   0  0  0  0  0  0  0  0  0  0  0  0
    4.4184   -2.9726    3.1660 C   0  0  2  0  0  0  0  0  0  0  0  0
    5.4161   -3.8333    3.0920 O   0  0  0  0  0  0  0  0  0  0  0  0
    4.9566   -4.9659    2.4118 C   0  0  1  0  0  0  0  0  0  0  0  0
    3.3277   -4.9662    1.9796 C   0  0  2  0  0  0  0  0  0  0  0  0
    2.3563   -3.9484    2.7784 C   0  0  0  0  0  0  0  0  0  0  0  0
    3.2533   -3.8812    3.9606 C   0  0  2  0  0  0  0  0  0  0  0  0
    3.4503   -3.3052    5.3582 C   0  0  0  0  0  0  0  0  0  0  0  0
    4.9073   -3.8726    5.7465 C   0  0  0  0  0  0  0  0  0  0  0  0
    5.3994   -5.3247    5.1982 C   0  0  1  0  0  0  0  0  0  0  0  0
    4.4950   -6.3158    5.8877 C   0  0  0  0  0  0  0  0  0  0  0  0
    4.9171   -7.1670    6.6641 O   0  0  0  0  0  0  0  0  0  0  0  0
    3.2282   -6.0396    5.6725 O   0  0  0  0  0  0  0  0  0  0  0  0
    2.8165   -5.4318    4.4516 C   0  0  2  0  0  0  0  0  0  0  0  0
    2.5802   -6.6746    3.5072 C   0  0  1  0  0  0  0  0  0  0  0  0
    1.2864   -7.4396    3.8727 C   0  0  0  0  0  0  0  0  0  0  0  0
    2.7475   -6.3643    2.0203 C   0  0  1  0  0  0  0  0  0  0  0  0
    1.4883   -6.5250    1.1378 C   0  0  0  0  0  0  0  0  0  0  0  0
    5.7322   -5.6807    3.6275 C   0  0  1  0  0  0  0  0  0  0  0  0
    8.1942   -7.0177    4.1905 H   0  0  0  0  0  0  0  0  0  0  0  0
    7.6521   -8.6386    3.7721 H   0  0  0  0  0  0  0  0  0  0  0  0
    6.9225   -7.8006    5.1190 H   0  0  0  0  0  0  0  0  0  0  0  0
    5.4257   -7.7798    3.1471 H   0  0  0  0  0  0  0  0  0  0  0  0
    7.7354   -7.5563    1.6059 H   0  0  0  0  0  0  0  0  0  0  0  0
    6.1066   -7.4714    1.0353 H   0  0  0  0  0  0  0  0  0  0  0  0
    7.8069   -5.0147    1.7297 H   0  0  0  0  0  0  0  0  0  0  0  0
    7.4645   -5.6083    0.1283 H   0  0  0  0  0  0  0  0  0  0  0  0
    5.1668   -5.2636    0.2993 H   0  0  0  0  0  0  0  0  0  0  0  0
    6.6717   -2.8090    1.0578 H   0  0  0  0  0  0  0  0  0  0  0  0
    5.5702   -3.0371   -0.2780 H   0  0  0  0  0  0  0  0  0  0  0  0
    4.8946   -1.4061    1.6857 H   0  0  0  0  0  0  0  0  0  0  0  0
    3.6678   -2.4032    1.0650 H   0  0  0  0  0  0  0  0  0  0  0  0
    4.7528   -2.1155    3.7541 H   0  0  0  0  0  0  0  0  0  0  0  0
    3.2380   -4.6547    0.9374 H   0  0  0  0  0  0  0  0  0  0  0  0
    2.1681   -2.9834    2.3167 H   0  0  0  0  0  0  0  0  0  0  0  0
    1.3542   -4.3341    2.9628 H   0  0  0  0  0  0  0  0  0  0  0  0
    3.4169   -2.2152    5.3942 H   0  0  0  0  0  0  0  0  0  0  0  0
    2.6853   -3.6267    6.0672 H   0  0  0  0  0  0  0  0  0  0  0  0
    5.6743   -3.1410    5.4959 H   0  0  0  0  0  0  0  0  0  0  0  0
    4.9501   -3.8876    6.8364 H   0  0  0  0  0  0  0  0  0  0  0  0
    6.3547   -5.4774    5.7029 H   0  0  0  0  0  0  0  0  0  0  0  0
    1.7977   -5.2120    4.7756 H   0  0  0  0  0  0  0  0  0  0  0  0
    3.3671   -7.3975    3.7092 H   0  0  0  0  0  0  0  0  0  0  0  0
    0.3919   -6.8376    3.7090 H   0  0  0  0  0  0  0  0  0  0  0  0
    1.2903   -7.7343    4.9237 H   0  0  0  0  0  0  0  0  0  0  0  0
    1.1906   -8.3575    3.2932 H   0  0  0  0  0  0  0  0  0  0  0  0
    3.4904   -7.0462    1.6047 H   0  0  0  0  0  0  0  0  0  0  0  0
    0.6505   -5.9218    1.4825 H   0  0  0  0  0  0  0  0  0  0  0  0
    1.1564   -7.5640    1.1072 H   0  0  0  0  0  0  0  0  0  0  0  0
    1.7015   -6.2428    0.1052 H   0  0  0  0  0  0  0  0  0  0  0  0
    6.7467   -5.2598    3.6636 H   0  0  0  0  0  0  0  0  0  0  0  0
  1  2  1  0
  1 26  1  0
  1 27  1  0
  1 28  1  0
  2 25  1  0
  2  3  1  0
  2 29  1  6
  3  4  1  0
  3 30  1  0
  3 31  1  0
  4  5  1  0
  4 32  1  0
  4 33  1  0
  5 10  1  0
  5  6  1  0
  5 34  1  6
  6  7  1  0
  6 35  1  0
  6 36  1  0
  7  8  1  0
  7 37  1  0
  7 38  1  0
  8 13  1  0
  8  9  1  0
  8 39  1  1
 10  9  1  1
 10 25  1  0
 10 11  1  0
 11 23  1  0
 11 12  1  0
 11 40  1  6
 13 12  1  6
 12 41  1  0
 12 42  1  0
 13 20  1  0
 13 14  1  0
 14 15  1  0
 14 43  1  0
 14 44  1  0
 15 16  1  0
 15 45  1  0
 15 46  1  0
 16 17  1  0
 16 25  1  0
 16 47  1  1
 17 18  2  0
 17 19  1  0
 19 20  1  0
 20 21  1  0
 20 48  1  1
 21 22  1  0
 21 23  1  0
 21 49  1  1
 22 50  1  0
 22 51  1  0
 22 52  1  0
 23 24  1  0
 23 53  1  6
 24 54  1  0
 24 55  1  0
 24 56  1  0
 25 57  1  6
M  END
>  <i_m_ct_stereo_status>  (142) 
1

>  <s_m_source_file>  (142) 
/var/tmp/pbs.5076255.sched01/tmpmmp70uc3/38qnywpnyg.sdf

>  <i_m_source_file_index>  (142) 
27

>  <i_lp_mmshare_version>  (142) 
48012

>  <i_f3d_flags>  (142) 
0

>  <s_epik_input>  (142) 
W0NAXTEyM1tDQEBIXTRbQ0gyXVtDSDJdW0NAQEhdKFtDSDNdKVtDQEBIXTNbQ0BIXTVbQ0gyXVtDSDJdQzYoW0NAQEhdKE8xKVtDSDJdW0NIMl00KVtDQEhdKE9DNT1PKVtDQEBIXShbQ0gzXSlbQ0BASF0oW0NIM10pW0NASF0yW0NIMl02

>  <s_epik_cmdline>  (142) 
J2VwaWtfcHl0aG9uJywgJy1waHQnLCAnMi4wJywgJy1waCcsICc3LjAnLCAnLXRuJywgJzgnLCAnLW1hJywgJzIwMCcsICctaW1hZScsICc8aW5maWxlLm1hZT4nLCAnLW9tYWUnLCAnPG91dGZpbGUubWFlPic=

>  <r_lp_tautomer_probability>  (142) 
1

>  <r_epik_Ionization_Penalty>  (142) 
3.26772e-11

>  <r_epik_Ionization_Penalty_Charging>  (142) 
0

>  <r_epik_Ionization_Penalty_Neutral>  (142) 
3.26772e-11

>  <r_epik_State_Penalty>  (142) 
-0

>  <r_epik_Charging_Adjusted_Penalty>  (142) 
0

>  <i_epik_Tot_Q>  (142) 
0

>  <i_epik_Tot_abs_Q>  (142) 
0

>  <s_epik_Chemistry_Notes>  (142) 
This compound has an ester and may undergo hydrolysis at high or low pH.

>  <s_lp_Force_Field>  (142) 
OPLS3e

>  <r_lp_Energy>  (142) 
305.051

>  <b_lp_Chiralities_Consistent>  (142) 
1

>  <s_lp_Variant>  (142) 
46:0-1

>  <s_i_glide_gridfile>  (142) 
pfpi4k_grid

>  <i_i_glide_lignum>  (142) 
27

>  <i_i_glide_rotatable_bonds>  (142) 
0

>  <r_i_docking_score>  (142) 
-2.32774

>  <r_i_glide_ligand_efficiency>  (142) 
-0.0931094

>  <r_i_glide_ligand_efficiency_sa>  (142) 
-0.272254

>  <r_i_glide_ligand_efficiency_ln>  (142) 
-0.551743

>  <r_i_glide_gscore>  (142) 
-2.32774

>  <r_i_glide_lipo>  (142) 
-0.364517

>  <r_i_glide_hbond>  (142) 
0

>  <r_i_glide_metal>  (142) 
-0

>  <r_i_glide_rewards>  (142) 
-1.06031

>  <r_i_glide_evdw>  (142) 
-17.3919

>  <r_i_glide_ecoul>  (142) 
-0.222081

>  <r_i_glide_erotb>  (142) 
0

>  <r_i_glide_esite>  (142) 
0

>  <r_i_glide_emodel>  (142) 
-20.3833

>  <r_i_glide_energy>  (142) 
-17.614

>  <r_i_glide_einternal>  (142) 
0

>  <r_i_glide_intrahb_reward>  (142) 
-0

>  <i_i_glide_confnum>  (142) 
1

>  <i_i_glide_posenum>  (142) 
3

>  <r_i_glide_eff_state_penalty>  (142) 
0

>  <ligand_id>  (142) 
46

>  <original_smiles>  (142) 
CC1CCC2CCC3OC24C2CC35CCC(C(=O)OC5C(C)C2C)C14

>  <smiles>  (142) 
[H]C([H])([H])C1([H])C([H])([H])C([H])([H])C2([H])C([H])([H])C([H])([H])C3([H])OC24C2([H])C([H])([H])C35C([H])([H])C([H])([H])C([H])(C(=O)OC5([H])C([H])(C([H])([H])[H])C2([H])C([H])([H])[H])C14[H]

$$$$
47:0:0
     RDKit          3D

 59 63  0  0  1  0  0  0  0  0999 V2000
    6.0908   -5.8537    4.6494 C   0  0  0  0  0  0  0  0  0  0  0  0
    5.3722   -5.6223    3.3010 C   0  0  2  0  0  0  0  0  0  0  0  0
    6.4079   -5.8833    2.1955 C   0  0  0  0  0  0  0  0  0  0  0  0
    6.8227   -5.0058    1.2713 C   0  0  0  0  0  0  0  0  0  0  0  0
    6.2742   -3.6442    1.2415 C   0  0  0  0  0  0  0  0  0  0  0  0
    6.6139   -2.8384    0.3768 O   0  0  0  0  0  0  0  0  0  0  0  0
    5.3179   -3.2675    2.2900 C   0  0  0  0  0  0  0  0  0  0  0  0
    4.9244   -4.1509    3.2209 C   0  0  0  0  0  0  0  0  0  0  0  0
    3.8915   -3.7744    4.2664 C   0  0  0  0  0  0  0  0  0  0  0  0
    2.6359   -4.6327    4.1317 C   0  0  2  0  0  0  0  0  0  0  0  0
    1.8900   -4.3241    5.1907 F   0  0  0  0  0  0  0  0  0  0  0  0
    2.8991   -6.1534    4.0688 C   0  0  1  0  0  0  0  0  0  0  0  0
    1.5750   -7.0063    3.8473 C   0  0  1  0  0  0  0  0  0  0  0  0
    0.2056   -6.2782    3.8615 C   0  0  0  0  0  0  0  0  0  0  0  0
   -0.9691   -7.2736    3.9112 C   0  0  2  0  0  0  0  0  0  0  0  0
   -0.9481   -7.8962    5.0848 F   0  0  0  0  0  0  0  0  0  0  0  0
   -0.9242   -8.3364    2.8153 C   0  0  0  0  0  0  0  0  0  0  0  0
    0.4073   -9.0928    2.8877 C   0  0  0  0  0  0  0  0  0  0  0  0
    1.6493   -8.1502    2.7702 C   0  0  1  0  0  0  0  0  0  0  0  0
    1.5309   -7.5241    1.3421 C   0  0  0  0  0  0  0  0  0  0  0  0
    3.0023   -8.9362    2.9660 C   0  0  1  0  0  0  0  0  0  0  0  0
    2.9443   -9.9244    4.1661 C   0  0  0  0  0  0  0  0  0  0  0  0
    2.8624  -11.1464    4.0536 O   0  0  0  0  0  0  0  0  0  0  0  0
    2.9775   -9.3605    5.6067 C   0  0  0  0  0  0  0  0  0  0  0  0
    3.3371  -10.3331    6.5713 O   0  0  0  0  0  0  0  0  0  0  0  0
    3.5679   -9.6610    1.7148 C   0  0  0  0  0  0  0  0  0  0  0  0
    4.6937   -8.6470    1.5781 C   0  0  2  0  0  0  0  0  0  0  0  0
    6.3949   -9.2671    1.2867 Cl  0  0  0  0  0  0  0  0  0  0  0  0
    4.2770   -8.0341    2.9256 C   0  0  2  0  0  0  0  0  0  0  0  0
    5.1697   -8.4965    3.8085 F   0  0  0  0  0  0  0  0  0  0  0  0
    4.0862   -6.5031    3.0979 C   0  0  2  0  0  0  0  0  0  0  0  0
    6.8151   -5.0616    4.8489 H   0  0  0  0  0  0  0  0  0  0  0  0
    6.6441   -6.7925    4.6691 H   0  0  0  0  0  0  0  0  0  0  0  0
    5.4029   -5.8715    5.4931 H   0  0  0  0  0  0  0  0  0  0  0  0
    6.8728   -6.8619    2.2265 H   0  0  0  0  0  0  0  0  0  0  0  0
    7.5840   -5.2582    0.5402 H   0  0  0  0  0  0  0  0  0  0  0  0
    4.9308   -2.2554    2.2725 H   0  0  0  0  0  0  0  0  0  0  0  0
    4.3335   -3.8819    5.2582 H   0  0  0  0  0  0  0  0  0  0  0  0
    3.6232   -2.7230    4.1567 H   0  0  0  0  0  0  0  0  0  0  0  0
    2.0827   -4.3208    3.2449 H   0  0  0  0  0  0  0  0  0  0  0  0
    3.2512   -6.4302    5.0653 H   0  0  0  0  0  0  0  0  0  0  0  0
    1.4596   -7.4949    4.8078 H   0  0  0  0  0  0  0  0  0  0  0  0
    0.1180   -5.6900    4.7699 H   0  0  0  0  0  0  0  0  0  0  0  0
    0.1268   -5.6038    3.0196 H   0  0  0  0  0  0  0  0  0  0  0  0
   -1.9200   -6.7434    3.8843 H   0  0  0  0  0  0  0  0  0  0  0  0
   -1.7456   -9.0401    2.9470 H   0  0  0  0  0  0  0  0  0  0  0  0
   -1.0656   -7.8782    1.8350 H   0  0  0  0  0  0  0  0  0  0  0  0
    0.3954   -9.6342    3.8335 H   0  0  0  0  0  0  0  0  0  0  0  0
    0.4367   -9.8667    2.1188 H   0  0  0  0  0  0  0  0  0  0  0  0
    1.1577   -8.2456    0.6437 H   0  0  0  0  0  0  0  0  0  0  0  0
    2.4488   -7.1489    0.9132 H   0  0  0  0  0  0  0  0  0  0  0  0
    0.8262   -6.7029    1.3028 H   0  0  0  0  0  0  0  0  0  0  0  0
    3.6605   -8.5119    5.6789 H   0  0  0  0  0  0  0  0  0  0  0  0
    1.9796   -9.0564    5.9180 H   0  0  0  0  0  0  0  0  0  0  0  0
    2.6049  -10.9235    6.6954 H   0  0  0  0  0  0  0  0  0  0  0  0
    3.9829  -10.6477    1.9234 H   0  0  0  0  0  0  0  0  0  0  0  0
    2.9053   -9.6952    0.8469 H   0  0  0  0  0  0  0  0  0  0  0  0
    4.4925   -7.9593    0.7644 H   0  0  0  0  0  0  0  0  0  0  0  0
    3.7374   -6.1245    2.1419 H   0  0  0  0  0  0  0  0  0  0  0  0
  2  1  1  1
  1 32  1  0
  1 33  1  0
  1 34  1  0
  2  8  1  0
  2 31  1  0
  2  3  1  0
  3  4  2  0
  3 35  1  0
  4  5  1  0
  4 36  1  0
  5  6  2  0
  5  7  1  0
  7  8  2  0
  7 37  1  0
  8  9  1  0
  9 10  1  0
  9 38  1  0
  9 39  1  0
 10 11  1  0
 10 12  1  0
 10 40  1  6
 12 31  1  0
 12 13  1  0
 12 41  1  1
 13 19  1  0
 13 14  1  0
 13 42  1  1
 14 15  1  0
 14 43  1  0
 14 44  1  0
 15 16  1  0
 15 17  1  0
 15 45  1  6
 17 18  1  0
 17 46  1  0
 17 47  1  0
 18 19  1  0
 18 48  1  0
 18 49  1  0
 19 20  1  6
 19 21  1  0
 20 50  1  0
 20 51  1  0
 20 52  1  0
 21 29  1  0
 21 22  1  1
 21 26  1  0
 22 23  2  0
 22 24  1  0
 24 25  1  0
 24 53  1  0
 24 54  1  0
 25 55  1  0
 26 27  1  0
 26 56  1  0
 26 57  1  0
 27 28  1  0
 27 29  1  0
 27 58  1  6
 29 30  1  1
 29 31  1  0
 31 59  1  6
M  END
>  <i_m_ct_stereo_status>  (143) 
1

>  <s_m_source_file>  (143) 
/var/tmp/pbs.5076255.sched01/tmpmmp70uc3/38qnywpnyg.sdf

>  <i_m_source_file_index>  (143) 
28

>  <i_lp_mmshare_version>  (143) 
48012

>  <i_f3d_flags>  (143) 
0

>  <s_epik_input>  (143) 
W0NIXTE9W0NIXUMoPU8pW0NIXT1DKFtDQF0xMltDSDNdKVtDSDJdW0NASF0oRilbQ0BIXTNbQ0BASF00W0NAXShbQ0gzXSkoW0NIMl1bQ0gyXVtDQEBIXShGKVtDSDJdNClbQ0BdNShDKD1PKVtDSDJdW09IXSlbQ0BdKEYpKFtDQEhdMjMpW0NAQEhdKENsKVtDSDJdNQ==

>  <s_epik_cmdline>  (143) 
J2VwaWtfcHl0aG9uJywgJy1waHQnLCAnMi4wJywgJy1waCcsICc3LjAnLCAnLXRuJywgJzgnLCAnLW1hJywgJzIwMCcsICctaW1hZScsICc8aW5maWxlLm1hZT4nLCAnLW9tYWUnLCAnPG91dGZpbGUubWFlPic=

>  <r_lp_tautomer_probability>  (143) 
1

>  <r_epik_Ionization_Penalty>  (143) 
1.90274e-05

>  <r_epik_Ionization_Penalty_Charging>  (143) 
0

>  <r_epik_Ionization_Penalty_Neutral>  (143) 
1.90274e-05

>  <r_epik_State_Penalty>  (143) 
-0

>  <r_epik_Charging_Adjusted_Penalty>  (143) 
0

>  <i_epik_Tot_Q>  (143) 
0

>  <i_epik_Tot_abs_Q>  (143) 
0

>  <s_lp_Force_Field>  (143) 
OPLS3e

>  <r_lp_Energy>  (143) 
68.4747

>  <b_lp_Chiralities_Consistent>  (143) 
1

>  <s_lp_Variant>  (143) 
47:0-1

>  <s_i_glide_gridfile>  (143) 
pfpi4k_grid

>  <i_i_glide_lignum>  (143) 
28

>  <i_i_glide_rotatable_bonds>  (143) 
3

>  <r_i_docking_score>  (143) 
-1.92268

>  <r_i_glide_ligand_efficiency>  (143) 
-0.0620219

>  <r_i_glide_ligand_efficiency_sa>  (143) 
-0.194834

>  <r_i_glide_ligand_efficiency_ln>  (143) 
-0.433623

>  <r_i_glide_gscore>  (143) 
-1.92268

>  <r_i_glide_lipo>  (143) 
-0.274942

>  <r_i_glide_hbond>  (143) 
0

>  <r_i_glide_metal>  (143) 
-0

>  <r_i_glide_rewards>  (143) 
-0.40999

>  <r_i_glide_evdw>  (143) 
-22.3789

>  <r_i_glide_ecoul>  (143) 
-1.63857

>  <r_i_glide_erotb>  (143) 
0.192555

>  <r_i_glide_esite>  (143) 
-0.065573

>  <r_i_glide_emodel>  (143) 
-26.0432

>  <r_i_glide_energy>  (143) 
-24.0175

>  <r_i_glide_einternal>  (143) 
1.58719

>  <r_i_glide_intrahb_reward>  (143) 
-0

>  <i_i_glide_confnum>  (143) 
2

>  <i_i_glide_posenum>  (143) 
25

>  <r_i_glide_eff_state_penalty>  (143) 
0

>  <ligand_id>  (143) 
47

>  <original_smiles>  (143) 
CC12C=CC(=O)C=C1CC(F)C1C3CC(F)CCC3(C)C3(C(=O)CO)CC(Cl)C3(F)C12

>  <smiles>  (143) 
[H]OC([H])([H])C(=O)C12C([H])([H])C([H])(Cl)C1(F)C1([H])C3(C([H])([H])[H])C([H])=C([H])C(=O)C([H])=C3C([H])([H])C([H])(F)C1([H])C1([H])C([H])([H])C([H])(F)C([H])([H])C([H])([H])C12C([H])([H])[H]

$$$$
47:0:1
     RDKit          3D

 59 63  0  0  1  0  0  0  0  0999 V2000
    6.0355   -5.8680    4.8483 C   0  0  0  0  0  0  0  0  0  0  0  0
    5.4471   -5.7900    3.4183 C   0  0  2  0  0  0  0  0  0  0  0  0
    6.5711   -6.2160    2.4666 C   0  0  0  0  0  0  0  0  0  0  0  0
    7.0965   -5.4536    1.4796 C   0  0  0  0  0  0  0  0  0  0  0  0
    6.5879   -4.1058    1.2406 C   0  0  0  0  0  0  0  0  0  0  0  0
    7.0379   -3.4052    0.3086 O   0  0  0  0  0  0  0  0  0  0  0  0
    5.5540   -3.5805    2.1239 C   0  0  0  0  0  0  0  0  0  0  0  0
    5.0408   -4.3459    3.1268 C   0  0  0  0  0  0  0  0  0  0  0  0
    3.9372   -3.8129    4.0075 C   0  0  0  0  0  0  0  0  0  0  0  0
    2.6662   -4.6550    3.8503 C   0  0  2  0  0  0  0  0  0  0  0  0
    1.8394   -4.2060    4.7987 F   0  0  0  0  0  0  0  0  0  0  0  0
    2.8848   -6.1839    4.0071 C   0  0  1  0  0  0  0  0  0  0  0  0
    1.5607   -7.0456    3.7902 C   0  0  1  0  0  0  0  0  0  0  0  0
    0.2213   -6.2920    3.5594 C   0  0  0  0  0  0  0  0  0  0  0  0
   -0.9855   -7.2436    3.6201 C   0  0  2  0  0  0  0  0  0  0  0  0
   -1.1438   -7.6901    4.8730 F   0  0  0  0  0  0  0  0  0  0  0  0
   -0.8493   -8.4456    2.6792 C   0  0  0  0  0  0  0  0  0  0  0  0
    0.4501   -9.2104    2.9635 C   0  0  0  0  0  0  0  0  0  0  0  0
    1.7202   -8.3024    2.8675 C   0  0  1  0  0  0  0  0  0  0  0  0
    1.7621   -7.8401    1.3799 C   0  0  0  0  0  0  0  0  0  0  0  0
    3.0380   -9.0779    3.2684 C   0  0  1  0  0  0  0  0  0  0  0  0
    2.8385   -9.8997    4.5624 C   0  0  0  0  0  0  0  0  0  0  0  0
    2.7050  -11.1210    4.5814 O   0  0  0  0  0  0  0  0  0  0  0  0
    2.8706   -9.2024    5.9421 C   0  0  0  0  0  0  0  0  0  0  0  0
    1.7315   -9.5858    6.7211 O   0  0  0  0  0  0  0  0  0  0  0  0
    3.6879   -9.9685    2.1829 C   0  0  0  0  0  0  0  0  0  0  0  0
    4.8506   -8.9990    2.0178 C   0  0  2  0  0  0  0  0  0  0  0  0
    6.5629   -9.6515    1.9031 Cl  0  0  0  0  0  0  0  0  0  0  0  0
    4.3363   -8.2168    3.2499 C   0  0  2  0  0  0  0  0  0  0  0  0
    5.1142   -8.5834    4.2702 F   0  0  0  0  0  0  0  0  0  0  0  0
    4.1582   -6.6672    3.2031 C   0  0  2  0  0  0  0  0  0  0  0  0
    6.7630   -5.0679    5.0150 H   0  0  0  0  0  0  0  0  0  0  0  0
    6.5541   -6.8074    5.0280 H   0  0  0  0  0  0  0  0  0  0  0  0
    5.2739   -5.7684    5.6183 H   0  0  0  0  0  0  0  0  0  0  0  0
    7.0008   -7.1842    2.6635 H   0  0  0  0  0  0  0  0  0  0  0  0
    7.9125   -5.8051    0.8603 H   0  0  0  0  0  0  0  0  0  0  0  0
    5.1960   -2.5771    1.9489 H   0  0  0  0  0  0  0  0  0  0  0  0
    4.2804   -3.8142    5.0442 H   0  0  0  0  0  0  0  0  0  0  0  0
    3.7114   -2.7783    3.7483 H   0  0  0  0  0  0  0  0  0  0  0  0
    2.2040   -4.4425    2.8849 H   0  0  0  0  0  0  0  0  0  0  0  0
    3.1465   -6.2866    5.0582 H   0  0  0  0  0  0  0  0  0  0  0  0
    1.3316   -7.4443    4.7759 H   0  0  0  0  0  0  0  0  0  0  0  0
    0.0721   -5.5851    4.3698 H   0  0  0  0  0  0  0  0  0  0  0  0
    0.2195   -5.7234    2.6299 H   0  0  0  0  0  0  0  0  0  0  0  0
   -1.9111   -6.7179    3.4206 H   0  0  0  0  0  0  0  0  0  0  0  0
   -1.6966   -9.1243    2.8139 H   0  0  0  0  0  0  0  0  0  0  0  0
   -0.8844   -8.1130    1.6421 H   0  0  0  0  0  0  0  0  0  0  0  0
    0.3308   -9.6279    3.9552 H   0  0  0  0  0  0  0  0  0  0  0  0
    0.5302  -10.0695    2.2955 H   0  0  0  0  0  0  0  0  0  0  0  0
    1.4301   -8.6501    0.7364 H   0  0  0  0  0  0  0  0  0  0  0  0
    2.7347   -7.5495    0.9899 H   0  0  0  0  0  0  0  0  0  0  0  0
    1.0731   -7.0285    1.1425 H   0  0  0  0  0  0  0  0  0  0  0  0
    3.7846   -9.5148    6.4707 H   0  0  0  0  0  0  0  0  0  0  0  0
    2.9008   -8.1114    5.8849 H   0  0  0  0  0  0  0  0  0  0  0  0
    1.7611  -10.5205    6.8899 H   0  0  0  0  0  0  0  0  0  0  0  0
    4.0459  -10.9379    2.5427 H   0  0  0  0  0  0  0  0  0  0  0  0
    3.1142  -10.0881    1.2670 H   0  0  0  0  0  0  0  0  0  0  0  0
    4.7236   -8.4221    1.1084 H   0  0  0  0  0  0  0  0  0  0  0  0
    3.9197   -6.3941    2.1797 H   0  0  0  0  0  0  0  0  0  0  0  0
  2  1  1  1
  1 32  1  0
  1 33  1  0
  1 34  1  0
  2  8  1  0
  2 31  1  0
  2  3  1  0
  3  4  2  0
  3 35  1  0
  4  5  1  0
  4 36  1  0
  5  6  2  0
  5  7  1  0
  7  8  2  0
  7 37  1  0
  8  9  1  0
  9 10  1  0
  9 38  1  0
  9 39  1  0
 10 11  1  0
 10 12  1  0
 10 40  1  6
 12 31  1  0
 12 13  1  0
 12 41  1  1
 13 19  1  0
 13 14  1  0
 13 42  1  1
 14 15  1  0
 14 43  1  0
 14 44  1  0
 15 16  1  0
 15 17  1  0
 15 45  1  6
 17 18  1  0
 17 46  1  0
 17 47  1  0
 18 19  1  0
 18 48  1  0
 18 49  1  0
 19 20  1  6
 19 21  1  0
 20 50  1  0
 20 51  1  0
 20 52  1  0
 21 29  1  0
 21 22  1  1
 21 26  1  0
 22 23  2  0
 22 24  1  0
 24 25  1  0
 24 53  1  0
 24 54  1  0
 25 55  1  0
 26 27  1  0
 26 56  1  0
 26 57  1  0
 27 28  1  0
 27 29  1  0
 27 58  1  6
 29 30  1  1
 29 31  1  0
 31 59  1  6
M  END
>  <i_m_ct_stereo_status>  (144) 
1

>  <s_m_source_file>  (144) 
/var/tmp/pbs.5076255.sched01/tmpmmp70uc3/38qnywpnyg.sdf

>  <i_m_source_file_index>  (144) 
28

>  <i_lp_mmshare_version>  (144) 
48012

>  <i_f3d_flags>  (144) 
0

>  <s_epik_input>  (144) 
W0NIXTE9W0NIXUMoPU8pW0NIXT1DKFtDQF0xMltDSDNdKVtDSDJdW0NASF0oRilbQ0BIXTNbQ0BASF00W0NAXShbQ0gzXSkoW0NIMl1bQ0gyXVtDQEBIXShGKVtDSDJdNClbQ0BdNShDKD1PKVtDSDJdW09IXSlbQ0BdKEYpKFtDQEhdMjMpW0NAQEhdKENsKVtDSDJdNQ==

>  <s_epik_cmdline>  (144) 
J2VwaWtfcHl0aG9uJywgJy1waHQnLCAnMi4wJywgJy1waCcsICc3LjAnLCAnLXRuJywgJzgnLCAnLW1hJywgJzIwMCcsICctaW1hZScsICc8aW5maWxlLm1hZT4nLCAnLW9tYWUnLCAnPG91dGZpbGUubWFlPic=

>  <r_lp_tautomer_probability>  (144) 
1

>  <r_epik_Ionization_Penalty>  (144) 
1.90274e-05

>  <r_epik_Ionization_Penalty_Charging>  (144) 
0

>  <r_epik_Ionization_Penalty_Neutral>  (144) 
1.90274e-05

>  <r_epik_State_Penalty>  (144) 
-0

>  <r_epik_Charging_Adjusted_Penalty>  (144) 
0

>  <i_epik_Tot_Q>  (144) 
0

>  <i_epik_Tot_abs_Q>  (144) 
0

>  <s_lp_Force_Field>  (144) 
OPLS3e

>  <r_lp_Energy>  (144) 
68.4747

>  <b_lp_Chiralities_Consistent>  (144) 
1

>  <s_lp_Variant>  (144) 
47:0-1

>  <s_i_glide_gridfile>  (144) 
pfpi4k_grid

>  <i_i_glide_lignum>  (144) 
28

>  <i_i_glide_rotatable_bonds>  (144) 
3

>  <r_i_docking_score>  (144) 
-1.86105

>  <r_i_glide_ligand_efficiency>  (144) 
-0.0600339

>  <r_i_glide_ligand_efficiency_sa>  (144) 
-0.188589

>  <r_i_glide_ligand_efficiency_ln>  (144) 
-0.419724

>  <r_i_glide_gscore>  (144) 
-1.86105

>  <r_i_glide_lipo>  (144) 
-0.165028

>  <r_i_glide_hbond>  (144) 
0

>  <r_i_glide_metal>  (144) 
-0

>  <r_i_glide_rewards>  (144) 
-0.422207

>  <r_i_glide_evdw>  (144) 
-22.2645

>  <r_i_glide_ecoul>  (144) 
-1.93495

>  <r_i_glide_erotb>  (144) 
0.192555

>  <r_i_glide_esite>  (144) 
-0.0628998

>  <r_i_glide_emodel>  (144) 
-25.7637

>  <r_i_glide_energy>  (144) 
-24.1995

>  <r_i_glide_einternal>  (144) 
2.27067

>  <r_i_glide_intrahb_reward>  (144) 
-0

>  <i_i_glide_confnum>  (144) 
2

>  <i_i_glide_posenum>  (144) 
28

>  <r_i_glide_eff_state_penalty>  (144) 
0

>  <ligand_id>  (144) 
47

>  <original_smiles>  (144) 
CC12C=CC(=O)C=C1CC(F)C1C3CC(F)CCC3(C)C3(C(=O)CO)CC(Cl)C3(F)C12

>  <smiles>  (144) 
[H]OC([H])([H])C(=O)C12C([H])([H])C([H])(Cl)C1(F)C1([H])C3(C([H])([H])[H])C([H])=C([H])C(=O)C([H])=C3C([H])([H])C([H])(F)C1([H])C1([H])C([H])([H])C([H])(F)C([H])([H])C([H])([H])C12C([H])([H])[H]

$$$$
47:0:2
     RDKit          3D

 59 63  0  0  1  0  0  0  0  0999 V2000
    6.2341   -6.7106    5.2003 C   0  0  0  0  0  0  0  0  0  0  0  0
    5.8700   -6.8274    3.7018 C   0  0  2  0  0  0  0  0  0  0  0  0
    7.0288   -7.5672    3.0231 C   0  0  0  0  0  0  0  0  0  0  0  0
    7.7929   -7.0938    2.0237 C   0  0  0  0  0  0  0  0  0  0  0  0
    7.5746   -5.7552    1.4705 C   0  0  0  0  0  0  0  0  0  0  0  0
    8.2577   -5.3189    0.5411 O   0  0  0  0  0  0  0  0  0  0  0  0
    6.5115   -4.9486    2.0780 C   0  0  0  0  0  0  0  0  0  0  0  0
    5.7579   -5.4188    3.0949 C   0  0  0  0  0  0  0  0  0  0  0  0
    4.6439   -4.5860    3.6930 C   0  0  0  0  0  0  0  0  0  0  0  0
    3.2866   -5.2626    3.4875 C   0  0  2  0  0  0  0  0  0  0  0  0
    2.4241   -4.5317    4.1913 F   0  0  0  0  0  0  0  0  0  0  0  0
    3.2345   -6.7503    3.9303 C   0  0  1  0  0  0  0  0  0  0  0  0
    1.8342   -7.4451    3.6442 C   0  0  1  0  0  0  0  0  0  0  0  0
    0.6668   -6.5758    3.0988 C   0  0  0  0  0  0  0  0  0  0  0  0
   -0.6890   -7.3137    3.1154 C   0  0  2  0  0  0  0  0  0  0  0  0
   -1.0975   -7.4850    4.3727 F   0  0  0  0  0  0  0  0  0  0  0  0
   -0.6248   -8.6638    2.4056 C   0  0  0  0  0  0  0  0  0  0  0  0
    0.4851   -9.5353    3.0128 C   0  0  0  0  0  0  0  0  0  0  0  0
    1.9004   -8.8621    2.9654 C   0  0  1  0  0  0  0  0  0  0  0  0
    2.2010   -8.7160    1.4336 C   0  0  0  0  0  0  0  0  0  0  0  0
    3.0031   -9.7194    3.7055 C   0  0  1  0  0  0  0  0  0  0  0  0
    2.5006  -10.2406    5.0700 C   0  0  0  0  0  0  0  0  0  0  0  0
    2.1427  -11.4014    5.2597 O   0  0  0  0  0  0  0  0  0  0  0  0
    2.4022   -9.2654    6.2576 C   0  0  0  0  0  0  0  0  0  0  0  0
    2.6218   -9.9178    7.4929 O   0  0  0  0  0  0  0  0  0  0  0  0
    3.6303  -10.8743    2.8941 C   0  0  0  0  0  0  0  0  0  0  0  0
    4.9460  -10.1154    2.7498 C   0  0  2  0  0  0  0  0  0  0  0  0
    6.5044  -11.0264    3.0516 Cl  0  0  0  0  0  0  0  0  0  0  0  0
    4.4243   -9.0644    3.7557 C   0  0  2  0  0  0  0  0  0  0  0  0
    5.0109   -9.3258    4.9269 F   0  0  0  0  0  0  0  0  0  0  0  0
    4.4992   -7.5439    3.4234 C   0  0  2  0  0  0  0  0  0  0  0  0
    7.0538   -6.0054    5.3471 H   0  0  0  0  0  0  0  0  0  0  0  0
    6.5631   -7.6592    5.6229 H   0  0  0  0  0  0  0  0  0  0  0  0
    5.4016   -6.3639    5.8094 H   0  0  0  0  0  0  0  0  0  0  0  0
    7.2677   -8.5381    3.4308 H   0  0  0  0  0  0  0  0  0  0  0  0
    8.6052   -7.6848    1.6148 H   0  0  0  0  0  0  0  0  0  0  0  0
    6.3561   -3.9528    1.6910 H   0  0  0  0  0  0  0  0  0  0  0  0
    4.8419   -4.4300    4.7554 H   0  0  0  0  0  0  0  0  0  0  0  0
    4.6277   -3.5943    3.2357 H   0  0  0  0  0  0  0  0  0  0  0  0
    3.0058   -5.1831    2.4377 H   0  0  0  0  0  0  0  0  0  0  0  0
    3.3240   -6.7138    5.0143 H   0  0  0  0  0  0  0  0  0  0  0  0
    1.4441   -7.6184    4.6367 H   0  0  0  0  0  0  0  0  0  0  0  0
    0.5276   -5.7033    3.7317 H   0  0  0  0  0  0  0  0  0  0  0  0
    0.8887   -6.2016    2.0994 H   0  0  0  0  0  0  0  0  0  0  0  0
   -1.4606   -6.7067    2.6465 H   0  0  0  0  0  0  0  0  0  0  0  0
   -1.5820   -9.1787    2.4836 H   0  0  0  0  0  0  0  0  0  0  0  0
   -0.4699   -8.4948    1.3413 H   0  0  0  0  0  0  0  0  0  0  0  0
    0.1674   -9.7471    4.0303 H   0  0  0  0  0  0  0  0  0  0  0  0
    0.5051  -10.5076    2.5143 H   0  0  0  0  0  0  0  0  0  0  0  0
    1.8464   -9.5908    0.8930 H   0  0  0  0  0  0  0  0  0  0  0  0
    3.2459   -8.6249    1.1649 H   0  0  0  0  0  0  0  0  0  0  0  0
    1.6989   -7.8661    0.9794 H   0  0  0  0  0  0  0  0  0  0  0  0
    3.1399   -8.4665    6.1666 H   0  0  0  0  0  0  0  0  0  0  0  0
    1.4012   -8.8267    6.2849 H   0  0  0  0  0  0  0  0  0  0  0  0
    2.1154  -10.7341    7.5064 H   0  0  0  0  0  0  0  0  0  0  0  0
    3.7716  -11.8108    3.4322 H   0  0  0  0  0  0  0  0  0  0  0  0
    3.1107  -11.0617    1.9628 H   0  0  0  0  0  0  0  0  0  0  0  0
    5.0499   -9.7086    1.7482 H   0  0  0  0  0  0  0  0  0  0  0  0
    4.4348   -7.4529    2.3428 H   0  0  0  0  0  0  0  0  0  0  0  0
  2  1  1  1
  1 32  1  0
  1 33  1  0
  1 34  1  0
  2  8  1  0
  2 31  1  0
  2  3  1  0
  3  4  2  0
  3 35  1  0
  4  5  1  0
  4 36  1  0
  5  6  2  0
  5  7  1  0
  7  8  2  0
  7 37  1  0
  8  9  1  0
  9 10  1  0
  9 38  1  0
  9 39  1  0
 10 11  1  0
 10 12  1  0
 10 40  1  6
 12 31  1  0
 12 13  1  0
 12 41  1  1
 13 19  1  0
 13 14  1  0
 13 42  1  1
 14 15  1  0
 14 43  1  0
 14 44  1  0
 15 16  1  0
 15 17  1  0
 15 45  1  6
 17 18  1  0
 17 46  1  0
 17 47  1  0
 18 19  1  0
 18 48  1  0
 18 49  1  0
 19 20  1  6
 19 21  1  0
 20 50  1  0
 20 51  1  0
 20 52  1  0
 21 29  1  0
 21 22  1  1
 21 26  1  0
 22 23  2  0
 22 24  1  0
 24 25  1  0
 24 53  1  0
 24 54  1  0
 25 55  1  0
 26 27  1  0
 26 56  1  0
 26 57  1  0
 27 28  1  0
 27 29  1  0
 27 58  1  6
 29 30  1  1
 29 31  1  0
 31 59  1  6
M  END
>  <i_m_ct_stereo_status>  (145) 
1

>  <s_m_source_file>  (145) 
/var/tmp/pbs.5076255.sched01/tmpmmp70uc3/38qnywpnyg.sdf

>  <i_m_source_file_index>  (145) 
28

>  <i_lp_mmshare_version>  (145) 
48012

>  <i_f3d_flags>  (145) 
0

>  <s_epik_input>  (145) 
W0NIXTE9W0NIXUMoPU8pW0NIXT1DKFtDQF0xMltDSDNdKVtDSDJdW0NASF0oRilbQ0BIXTNbQ0BASF00W0NAXShbQ0gzXSkoW0NIMl1bQ0gyXVtDQEBIXShGKVtDSDJdNClbQ0BdNShDKD1PKVtDSDJdW09IXSlbQ0BdKEYpKFtDQEhdMjMpW0NAQEhdKENsKVtDSDJdNQ==

>  <s_epik_cmdline>  (145) 
J2VwaWtfcHl0aG9uJywgJy1waHQnLCAnMi4wJywgJy1waCcsICc3LjAnLCAnLXRuJywgJzgnLCAnLW1hJywgJzIwMCcsICctaW1hZScsICc8aW5maWxlLm1hZT4nLCAnLW9tYWUnLCAnPG91dGZpbGUubWFlPic=

>  <r_lp_tautomer_probability>  (145) 
1

>  <r_epik_Ionization_Penalty>  (145) 
1.90274e-05

>  <r_epik_Ionization_Penalty_Charging>  (145) 
0

>  <r_epik_Ionization_Penalty_Neutral>  (145) 
1.90274e-05

>  <r_epik_State_Penalty>  (145) 
-0

>  <r_epik_Charging_Adjusted_Penalty>  (145) 
0

>  <i_epik_Tot_Q>  (145) 
0

>  <i_epik_Tot_abs_Q>  (145) 
0

>  <s_lp_Force_Field>  (145) 
OPLS3e

>  <r_lp_Energy>  (145) 
68.4747

>  <b_lp_Chiralities_Consistent>  (145) 
1

>  <s_lp_Variant>  (145) 
47:0-1

>  <s_i_glide_gridfile>  (145) 
pfpi4k_grid

>  <i_i_glide_lignum>  (145) 
28

>  <i_i_glide_rotatable_bonds>  (145) 
3

>  <r_i_docking_score>  (145) 
-1.82508

>  <r_i_glide_ligand_efficiency>  (145) 
-0.0588736

>  <r_i_glide_ligand_efficiency_sa>  (145) 
-0.184944

>  <r_i_glide_ligand_efficiency_ln>  (145) 
-0.411612

>  <r_i_glide_gscore>  (145) 
-1.82508

>  <r_i_glide_lipo>  (145) 
-0.0739287

>  <r_i_glide_hbond>  (145) 
0

>  <r_i_glide_metal>  (145) 
-0

>  <r_i_glide_rewards>  (145) 
-0.371554

>  <r_i_glide_evdw>  (145) 
-21.0277

>  <r_i_glide_ecoul>  (145) 
-2.84433

>  <r_i_glide_erotb>  (145) 
0.192555

>  <r_i_glide_esite>  (145) 
-0.0941186

>  <r_i_glide_emodel>  (145) 
-25.182

>  <r_i_glide_energy>  (145) 
-23.872

>  <r_i_glide_einternal>  (145) 
2.31702

>  <r_i_glide_intrahb_reward>  (145) 
-0

>  <i_i_glide_confnum>  (145) 
2

>  <i_i_glide_posenum>  (145) 
1

>  <r_i_glide_eff_state_penalty>  (145) 
0

>  <ligand_id>  (145) 
47

>  <original_smiles>  (145) 
CC12C=CC(=O)C=C1CC(F)C1C3CC(F)CCC3(C)C3(C(=O)CO)CC(Cl)C3(F)C12

>  <smiles>  (145) 
[H]OC([H])([H])C(=O)C12C([H])([H])C([H])(Cl)C1(F)C1([H])C3(C([H])([H])[H])C([H])=C([H])C(=O)C([H])=C3C([H])([H])C([H])(F)C1([H])C1([H])C([H])([H])C([H])(F)C([H])([H])C([H])([H])C12C([H])([H])[H]

$$$$
48:0:0
     RDKit          3D

 37 41  0  0  1  0  0  0  0  0999 V2000
    6.0680   -4.7048    0.2723 F   0  0  0  0  0  0  0  0  0  0  0  0
    5.0081   -5.1863    0.9669 C   0  0  0  0  0  0  0  0  0  0  0  0
    5.1706   -5.5963    2.3022 C   0  0  0  0  0  0  0  0  0  0  0  0
    4.0722   -6.0966    3.0239 C   0  0  0  0  0  0  0  0  0  0  0  0
    2.8016   -6.2131    2.4156 C   0  0  0  0  0  0  0  0  0  0  0  0
    1.6173   -6.7831    3.2010 C   0  0  2  0  0  0  0  0  0  0  0  0
    1.0616   -5.7652    4.1829 C   0  0  0  0  0  0  0  0  0  0  0  0
    1.0517   -3.9737    4.1306 S   0  0  0  0  0  0  0  0  0  0  0  0
    0.1545   -3.9423    5.6682 C   0  0  0  0  0  0  0  0  0  0  0  0
   -0.4001   -3.1427    6.5374 N   0  0  0  0  0  0  0  0  0  0  0  0
   -0.9305   -3.9934    7.5284 N   0  0  0  0  0  0  0  0  0  0  0  0
   -0.7083   -5.2539    7.2752 N   0  0  0  0  0  0  0  0  0  0  0  0
   -0.0462   -5.2092    6.1142 N   0  0  0  0  0  0  0  0  0  0  0  0
    0.4248   -6.2274    5.3726 C   0  0  0  0  0  0  0  0  0  0  0  0
    0.3496   -7.5901    5.7055 N   0  0  0  0  0  0  0  0  0  0  0  0
    1.0067   -8.4738    5.0570 C   0  0  0  0  0  0  0  0  0  0  0  0
    1.0200   -9.9332    5.5159 C   0  0  0  0  0  0  0  0  0  0  0  0
    0.8991  -10.9377    4.3586 C   0  0  0  0  0  0  0  0  0  0  0  0
    1.9783  -10.7004    3.3001 C   0  0  0  0  0  0  0  0  0  0  0  0
    1.8699   -9.2751    2.7471 C   0  0  0  0  0  0  0  0  0  0  0  0
    1.8993   -8.1731    3.8373 C   0  0  1  0  0  0  0  0  0  0  0  0
    2.6427   -5.7879    1.0736 C   0  0  0  0  0  0  0  0  0  0  0  0
    1.4288   -5.8593    0.4695 F   0  0  0  0  0  0  0  0  0  0  0  0
    3.7434   -5.2780    0.3572 C   0  0  0  0  0  0  0  0  0  0  0  0
    6.1404   -5.5313    2.7707 H   0  0  0  0  0  0  0  0  0  0  0  0
    4.2182   -6.3963    4.0513 H   0  0  0  0  0  0  0  0  0  0  0  0
    0.7850   -6.9288    2.5103 H   0  0  0  0  0  0  0  0  0  0  0  0
    1.9504  -10.1232    6.0557 H   0  0  0  0  0  0  0  0  0  0  0  0
    0.2139  -10.1091    6.2265 H   0  0  0  0  0  0  0  0  0  0  0  0
    0.9734  -11.9560    4.7433 H   0  0  0  0  0  0  0  0  0  0  0  0
   -0.0900  -10.8565    3.9056 H   0  0  0  0  0  0  0  0  0  0  0  0
    2.9657  -10.8748    3.7304 H   0  0  0  0  0  0  0  0  0  0  0  0
    1.8668  -11.4198    2.4876 H   0  0  0  0  0  0  0  0  0  0  0  0
    2.6894   -9.1126    2.0473 H   0  0  0  0  0  0  0  0  0  0  0  0
    0.9557   -9.1954    2.1598 H   0  0  0  0  0  0  0  0  0  0  0  0
    2.8996   -8.1731    4.2658 H   0  0  0  0  0  0  0  0  0  0  0  0
    3.6267   -4.9617   -0.6692 H   0  0  0  0  0  0  0  0  0  0  0  0
  1  2  1  0
  2 24  2  0
  2  3  1  0
  3  4  2  0
  3 25  1  0
  4  5  1  0
  4 26  1  0
  5  6  1  0
  5 22  2  0
  6 21  1  0
  6  7  1  0
  6 27  1  6
  7 14  2  0
  7  8  1  0
  8  9  1  0
  9 13  1  0
  9 10  2  0
 10 11  1  0
 11 12  2  0
 12 13  1  0
 13 14  1  0
 14 15  1  0
 15 16  2  0
 16 21  1  0
 16 17  1  0
 17 18  1  0
 17 28  1  0
 17 29  1  0
 18 19  1  0
 18 30  1  0
 18 31  1  0
 19 20  1  0
 19 32  1  0
 19 33  1  0
 20 21  1  0
 20 34  1  0
 20 35  1  0
 21 36  1  1
 22 23  1  0
 22 24  1  0
 24 37  1  0
M  END
>  <i_m_ct_stereo_status>  (146) 
1

>  <s_m_source_file>  (146) 
/var/tmp/pbs.5076255.sched01/tmpmmp70uc3/38qnywpnyg.sdf

>  <i_m_source_file_index>  (146) 
29

>  <i_lp_mmshare_version>  (146) 
48012

>  <i_f3d_flags>  (146) 
0

>  <s_epik_input>  (146) 
RmMxW2NIXVtjSF1jKGMoRilbY0hdMSlbQ0BIXTJbQ0BIXShbQ0gyXVtDSDJdW0NIMl1bQ0gyXTMpQzM9TmMoYzI0KW41YyhzNClubm41

>  <s_epik_cmdline>  (146) 
J2VwaWtfcHl0aG9uJywgJy1waHQnLCAnMi4wJywgJy1waCcsICc3LjAnLCAnLXRuJywgJzgnLCAnLW1hJywgJzIwMCcsICctaW1hZScsICc8aW5maWxlLm1hZT4nLCAnLW9tYWUnLCAnPG91dGZpbGUubWFlPic=

>  <r_lp_tautomer_probability>  (146) 
1

>  <r_epik_Ionization_Penalty>  (146) 
6.04162e-07

>  <r_epik_Ionization_Penalty_Charging>  (146) 
0

>  <r_epik_Ionization_Penalty_Neutral>  (146) 
6.04162e-07

>  <r_epik_State_Penalty>  (146) 
-0

>  <r_epik_Charging_Adjusted_Penalty>  (146) 
0

>  <i_epik_Tot_Q>  (146) 
0

>  <i_epik_Tot_abs_Q>  (146) 
0

>  <s_epik_Chemistry_Notes>  (146) 
This compound has an imine and may undergo hydrolysis.

>  <s_lp_Force_Field>  (146) 
OPLS3e

>  <r_lp_Energy>  (146) 
28.9777

>  <b_lp_Chiralities_Consistent>  (146) 
1

>  <s_lp_Variant>  (146) 
48:0-1

>  <s_i_glide_gridfile>  (146) 
pfpi4k_grid

>  <i_i_glide_lignum>  (146) 
29

>  <i_i_glide_rotatable_bonds>  (146) 
1

>  <r_i_docking_score>  (146) 
-3.35488

>  <r_i_glide_ligand_efficiency>  (146) 
-0.139787

>  <r_i_glide_ligand_efficiency_sa>  (146) 
-0.403214

>  <r_i_glide_ligand_efficiency_ln>  (146) 
-0.802977

>  <r_i_glide_gscore>  (146) 
-3.35488

>  <r_i_glide_lipo>  (146) 
-0.186709

>  <r_i_glide_hbond>  (146) 
0

>  <r_i_glide_metal>  (146) 
-0

>  <r_i_glide_rewards>  (146) 
-1.19142

>  <r_i_glide_evdw>  (146) 
-24.3809

>  <r_i_glide_ecoul>  (146) 
-4.82615

>  <r_i_glide_erotb>  (146) 
0.159279

>  <r_i_glide_esite>  (146) 
-0.193059

>  <r_i_glide_emodel>  (146) 
-35.5739

>  <r_i_glide_energy>  (146) 
-29.207

>  <r_i_glide_einternal>  (146) 
0.412586

>  <r_i_glide_intrahb_reward>  (146) 
-0

>  <i_i_glide_confnum>  (146) 
2

>  <i_i_glide_posenum>  (146) 
7

>  <r_i_glide_eff_state_penalty>  (146) 
0

>  <ligand_id>  (146) 
48

>  <original_smiles>  (146) 
Fc1ccc(C2c3sc4nnnn4c3N=C3CCCCC32)c(F)c1

>  <smiles>  (146) 
[H]c1c([H])c(C2([H])c3sc4nnnn4c3N=C3C([H])([H])C([H])([H])C([H])([H])C([H])([H])C32[H])c(F)c([H])c1F

$$$$
48:0:1
     RDKit          3D

 37 41  0  0  1  0  0  0  0  0999 V2000
    6.2860   -1.1427    0.1083 F   0  0  0  0  0  0  0  0  0  0  0  0
    5.3703   -0.7380    1.0272 C   0  0  0  0  0  0  0  0  0  0  0  0
    4.0370   -0.5003    0.6420 C   0  0  0  0  0  0  0  0  0  0  0  0
    3.0949   -0.0348    1.5784 C   0  0  0  0  0  0  0  0  0  0  0  0
    3.4733    0.2224    2.9174 C   0  0  0  0  0  0  0  0  0  0  0  0
    2.4596    0.7765    3.9231 C   0  0  2  0  0  0  0  0  0  0  0  0
    1.5620   -0.3391    4.4255 C   0  0  0  0  0  0  0  0  0  0  0  0
    1.8801   -2.0956    4.5844 S   0  0  0  0  0  0  0  0  0  0  0  0
    0.2551   -2.2962    5.2765 C   0  0  0  0  0  0  0  0  0  0  0  0
   -0.5831   -3.1502    5.8110 N   0  0  0  0  0  0  0  0  0  0  0  0
   -1.7551   -2.4110    6.0831 N   0  0  0  0  0  0  0  0  0  0  0  0
   -1.6635   -1.1696    5.6853 N   0  0  0  0  0  0  0  0  0  0  0  0
   -0.4074   -1.1194    5.2519 N   0  0  0  0  0  0  0  0  0  0  0  0
    0.2398   -0.0229    4.8233 C   0  0  0  0  0  0  0  0  0  0  0  0
   -0.2990    1.2703    4.7462 N   0  0  0  0  0  0  0  0  0  0  0  0
    0.3212    2.2075    4.1202 C   0  0  0  0  0  0  0  0  0  0  0  0
   -0.3065    3.5825    3.9257 C   0  0  0  0  0  0  0  0  0  0  0  0
    0.6712    4.7537    4.1422 C   0  0  0  0  0  0  0  0  0  0  0  0
    1.9165    4.6082    3.2698 C   0  0  0  0  0  0  0  0  0  0  0  0
    2.6031    3.2759    3.5577 C   0  0  0  0  0  0  0  0  0  0  0  0
    1.6869    2.0375    3.4456 C   0  0  1  0  0  0  0  0  0  0  0  0
    4.8100   -0.0495    3.3107 C   0  0  0  0  0  0  0  0  0  0  0  0
    5.2248    0.1903    4.5842 F   0  0  0  0  0  0  0  0  0  0  0  0
    5.7447   -0.5313    2.3701 C   0  0  0  0  0  0  0  0  0  0  0  0
    3.7348   -0.6592   -0.3867 H   0  0  0  0  0  0  0  0  0  0  0  0
    2.0786    0.1344    1.2415 H   0  0  0  0  0  0  0  0  0  0  0  0
    2.9892    1.0630    4.8271 H   0  0  0  0  0  0  0  0  0  0  0  0
   -0.7128    3.6343    2.9146 H   0  0  0  0  0  0  0  0  0  0  0  0
   -1.1466    3.6925    4.6071 H   0  0  0  0  0  0  0  0  0  0  0  0
    0.1808    5.7019    3.9130 H   0  0  0  0  0  0  0  0  0  0  0  0
    0.9755    4.7983    5.1888 H   0  0  0  0  0  0  0  0  0  0  0  0
    1.6677    4.6657    2.2124 H   0  0  0  0  0  0  0  0  0  0  0  0
    2.6062    5.4363    3.4316 H   0  0  0  0  0  0  0  0  0  0  0  0
    3.3900    3.1622    2.8219 H   0  0  0  0  0  0  0  0  0  0  0  0
    3.0742    3.3246    4.5390 H   0  0  0  0  0  0  0  0  0  0  0  0
    1.4180    1.9261    2.4033 H   0  0  0  0  0  0  0  0  0  0  0  0
    6.7823   -0.6707    2.6542 H   0  0  0  0  0  0  0  0  0  0  0  0
  1  2  1  0
  2 24  2  0
  2  3  1  0
  3  4  2  0
  3 25  1  0
  4  5  1  0
  4 26  1  0
  5  6  1  0
  5 22  2  0
  6 21  1  0
  6  7  1  0
  6 27  1  1
  7 14  2  0
  7  8  1  0
  8  9  1  0
  9 13  1  0
  9 10  2  0
 10 11  1  0
 11 12  2  0
 12 13  1  0
 13 14  1  0
 14 15  1  0
 15 16  2  0
 16 21  1  0
 16 17  1  0
 17 18  1  0
 17 28  1  0
 17 29  1  0
 18 19  1  0
 18 30  1  0
 18 31  1  0
 19 20  1  0
 19 32  1  0
 19 33  1  0
 20 21  1  0
 20 34  1  0
 20 35  1  0
 21 36  1  6
 22 23  1  0
 22 24  1  0
 24 37  1  0
M  END
>  <i_m_ct_stereo_status>  (147) 
1

>  <s_m_source_file>  (147) 
/var/tmp/pbs.5076255.sched01/tmpmmp70uc3/38qnywpnyg.sdf

>  <i_m_source_file_index>  (147) 
29

>  <i_lp_mmshare_version>  (147) 
48012

>  <i_f3d_flags>  (147) 
0

>  <s_epik_input>  (147) 
RmMxW2NIXVtjSF1jKGMoRilbY0hdMSlbQ0BIXTJbQ0BIXShbQ0gyXVtDSDJdW0NIMl1bQ0gyXTMpQzM9TmMoYzI0KW41YyhzNClubm41

>  <s_epik_cmdline>  (147) 
J2VwaWtfcHl0aG9uJywgJy1waHQnLCAnMi4wJywgJy1waCcsICc3LjAnLCAnLXRuJywgJzgnLCAnLW1hJywgJzIwMCcsICctaW1hZScsICc8aW5maWxlLm1hZT4nLCAnLW9tYWUnLCAnPG91dGZpbGUubWFlPic=

>  <r_lp_tautomer_probability>  (147) 
1

>  <r_epik_Ionization_Penalty>  (147) 
6.04162e-07

>  <r_epik_Ionization_Penalty_Charging>  (147) 
0

>  <r_epik_Ionization_Penalty_Neutral>  (147) 
6.04162e-07

>  <r_epik_State_Penalty>  (147) 
-0

>  <r_epik_Charging_Adjusted_Penalty>  (147) 
0

>  <i_epik_Tot_Q>  (147) 
0

>  <i_epik_Tot_abs_Q>  (147) 
0

>  <s_epik_Chemistry_Notes>  (147) 
This compound has an imine and may undergo hydrolysis.

>  <s_lp_Force_Field>  (147) 
OPLS3e

>  <r_lp_Energy>  (147) 
28.9777

>  <b_lp_Chiralities_Consistent>  (147) 
1

>  <s_lp_Variant>  (147) 
48:0-1

>  <s_i_glide_gridfile>  (147) 
pfpi4k_grid

>  <i_i_glide_lignum>  (147) 
29

>  <i_i_glide_rotatable_bonds>  (147) 
1

>  <r_i_docking_score>  (147) 
-3.31141

>  <r_i_glide_ligand_efficiency>  (147) 
-0.137975

>  <r_i_glide_ligand_efficiency_sa>  (147) 
-0.39799

>  <r_i_glide_ligand_efficiency_ln>  (147) 
-0.792573

>  <r_i_glide_gscore>  (147) 
-3.31141

>  <r_i_glide_lipo>  (147) 
-0.340371

>  <r_i_glide_hbond>  (147) 
0

>  <r_i_glide_metal>  (147) 
-0

>  <r_i_glide_rewards>  (147) 
-1.17561

>  <r_i_glide_evdw>  (147) 
-21.2813

>  <r_i_glide_ecoul>  (147) 
-4.56569

>  <r_i_glide_erotb>  (147) 
0.159279

>  <r_i_glide_esite>  (147) 
-0.205786

>  <r_i_glide_emodel>  (147) 
-31.9575

>  <r_i_glide_energy>  (147) 
-25.847

>  <r_i_glide_einternal>  (147) 
0.50467

>  <r_i_glide_intrahb_reward>  (147) 
-0

>  <i_i_glide_confnum>  (147) 
2

>  <i_i_glide_posenum>  (147) 
2

>  <r_i_glide_eff_state_penalty>  (147) 
0

>  <ligand_id>  (147) 
48

>  <original_smiles>  (147) 
Fc1ccc(C2c3sc4nnnn4c3N=C3CCCCC32)c(F)c1

>  <smiles>  (147) 
[H]c1c([H])c(C2([H])c3sc4nnnn4c3N=C3C([H])([H])C([H])([H])C([H])([H])C([H])([H])C32[H])c(F)c([H])c1F

$$$$
48:0:2
     RDKit          3D

 37 41  0  0  1  0  0  0  0  0999 V2000
    0.6179  -11.1442    2.8843 F   0  0  0  0  0  0  0  0  0  0  0  0
    1.0103   -9.8537    3.0009 C   0  0  0  0  0  0  0  0  0  0  0  0
    2.2359   -9.5472    3.6189 C   0  0  0  0  0  0  0  0  0  0  0  0
    2.6516   -8.2062    3.7299 C   0  0  0  0  0  0  0  0  0  0  0  0
    1.8490   -7.1610    3.2167 C   0  0  0  0  0  0  0  0  0  0  0  0
    2.3272   -5.7135    3.3426 C   0  0  2  0  0  0  0  0  0  0  0  0
    1.3882   -4.8849    4.1976 C   0  0  0  0  0  0  0  0  0  0  0  0
    0.3076   -5.3602    5.5467 S   0  0  0  0  0  0  0  0  0  0  0  0
   -0.1834   -3.6615    5.7365 C   0  0  0  0  0  0  0  0  0  0  0  0
   -0.9537   -2.8689    6.4338 N   0  0  0  0  0  0  0  0  0  0  0  0
   -0.7619   -1.5913    5.8702 N   0  0  0  0  0  0  0  0  0  0  0  0
    0.0848   -1.6018    4.8779 N   0  0  0  0  0  0  0  0  0  0  0  0
    0.4424   -2.8884    4.8116 N   0  0  0  0  0  0  0  0  0  0  0  0
    1.2902   -3.4829    3.9565 C   0  0  0  0  0  0  0  0  0  0  0  0
    1.9861   -2.8500    2.9095 N   0  0  0  0  0  0  0  0  0  0  0  0
    2.6081   -3.5195    2.0156 C   0  0  0  0  0  0  0  0  0  0  0  0
    3.2436   -2.8136    0.8175 C   0  0  0  0  0  0  0  0  0  0  0  0
    4.6311   -3.3667    0.4536 C   0  0  0  0  0  0  0  0  0  0  0  0
    4.5754   -4.8801    0.2176 C   0  0  0  0  0  0  0  0  0  0  0  0
    4.0511   -5.5939    1.4704 C   0  0  0  0  0  0  0  0  0  0  0  0
    2.6894   -5.0573    1.9843 C   0  0  1  0  0  0  0  0  0  0  0  0
    0.6123   -7.4763    2.6063 C   0  0  0  0  0  0  0  0  0  0  0  0
   -0.1849   -6.4917    2.1197 F   0  0  0  0  0  0  0  0  0  0  0  0
    0.1976   -8.8180    2.5018 C   0  0  0  0  0  0  0  0  0  0  0  0
    2.8515  -10.3471    4.0015 H   0  0  0  0  0  0  0  0  0  0  0  0
    3.5941   -7.9944    4.2145 H   0  0  0  0  0  0  0  0  0  0  0  0
    3.2392   -5.7127    3.9415 H   0  0  0  0  0  0  0  0  0  0  0  0
    2.5773   -2.9151   -0.0428 H   0  0  0  0  0  0  0  0  0  0  0  0
    3.3189   -1.7457    1.0154 H   0  0  0  0  0  0  0  0  0  0  0  0
    5.0059   -2.8692   -0.4409 H   0  0  0  0  0  0  0  0  0  0  0  0
    5.3389   -3.1404    1.2515 H   0  0  0  0  0  0  0  0  0  0  0  0
    3.9396   -5.0972   -0.6423 H   0  0  0  0  0  0  0  0  0  0  0  0
    5.5721   -5.2549   -0.0298 H   0  0  0  0  0  0  0  0  0  0  0  0
    3.9590   -6.6585    1.2533 H   0  0  0  0  0  0  0  0  0  0  0  0
    4.7991   -5.5111    2.2573 H   0  0  0  0  0  0  0  0  0  0  0  0
    1.9309   -5.3458    1.2566 H   0  0  0  0  0  0  0  0  0  0  0  0
   -0.7383   -9.0632    2.0252 H   0  0  0  0  0  0  0  0  0  0  0  0
  1  2  1  0
  2 24  2  0
  2  3  1  0
  3  4  2  0
  3 25  1  0
  4  5  1  0
  4 26  1  0
  5  6  1  0
  5 22  2  0
  6 21  1  0
  6  7  1  0
  6 27  1  1
  7 14  2  0
  7  8  1  0
  8  9  1  0
  9 13  1  0
  9 10  2  0
 10 11  1  0
 11 12  2  0
 12 13  1  0
 13 14  1  0
 14 15  1  0
 15 16  2  0
 16 21  1  0
 16 17  1  0
 17 18  1  0
 17 28  1  0
 17 29  1  0
 18 19  1  0
 18 30  1  0
 18 31  1  0
 19 20  1  0
 19 32  1  0
 19 33  1  0
 20 21  1  0
 20 34  1  0
 20 35  1  0
 21 36  1  6
 22 23  1  0
 22 24  1  0
 24 37  1  0
M  END
>  <i_m_ct_stereo_status>  (148) 
1

>  <s_m_source_file>  (148) 
/var/tmp/pbs.5076255.sched01/tmpmmp70uc3/38qnywpnyg.sdf

>  <i_m_source_file_index>  (148) 
29

>  <i_lp_mmshare_version>  (148) 
48012

>  <i_f3d_flags>  (148) 
0

>  <s_epik_input>  (148) 
RmMxW2NIXVtjSF1jKGMoRilbY0hdMSlbQ0BIXTJbQ0BIXShbQ0gyXVtDSDJdW0NIMl1bQ0gyXTMpQzM9TmMoYzI0KW41YyhzNClubm41

>  <s_epik_cmdline>  (148) 
J2VwaWtfcHl0aG9uJywgJy1waHQnLCAnMi4wJywgJy1waCcsICc3LjAnLCAnLXRuJywgJzgnLCAnLW1hJywgJzIwMCcsICctaW1hZScsICc8aW5maWxlLm1hZT4nLCAnLW9tYWUnLCAnPG91dGZpbGUubWFlPic=

>  <r_lp_tautomer_probability>  (148) 
1

>  <r_epik_Ionization_Penalty>  (148) 
6.04162e-07

>  <r_epik_Ionization_Penalty_Charging>  (148) 
0

>  <r_epik_Ionization_Penalty_Neutral>  (148) 
6.04162e-07

>  <r_epik_State_Penalty>  (148) 
-0

>  <r_epik_Charging_Adjusted_Penalty>  (148) 
0

>  <i_epik_Tot_Q>  (148) 
0

>  <i_epik_Tot_abs_Q>  (148) 
0

>  <s_epik_Chemistry_Notes>  (148) 
This compound has an imine and may undergo hydrolysis.

>  <s_lp_Force_Field>  (148) 
OPLS3e

>  <r_lp_Energy>  (148) 
28.9777

>  <b_lp_Chiralities_Consistent>  (148) 
1

>  <s_lp_Variant>  (148) 
48:0-1

>  <s_i_glide_gridfile>  (148) 
pfpi4k_grid

>  <i_i_glide_lignum>  (148) 
29

>  <i_i_glide_rotatable_bonds>  (148) 
1

>  <r_i_docking_score>  (148) 
-3.09423

>  <r_i_glide_ligand_efficiency>  (148) 
-0.128926

>  <r_i_glide_ligand_efficiency_sa>  (148) 
-0.371887

>  <r_i_glide_ligand_efficiency_ln>  (148) 
-0.74059

>  <r_i_glide_gscore>  (148) 
-3.09423

>  <r_i_glide_lipo>  (148) 
-0.187241

>  <r_i_glide_hbond>  (148) 
0

>  <r_i_glide_metal>  (148) 
-0

>  <r_i_glide_rewards>  (148) 
-1.17595

>  <r_i_glide_evdw>  (148) 
-23.1875

>  <r_i_glide_ecoul>  (148) 
-3.43934

>  <r_i_glide_erotb>  (148) 
0.159279

>  <r_i_glide_esite>  (148) 
-0.215044

>  <r_i_glide_emodel>  (148) 
-32.684

>  <r_i_glide_energy>  (148) 
-26.6268

>  <r_i_glide_einternal>  (148) 
0.00540831

>  <r_i_glide_intrahb_reward>  (148) 
-0

>  <i_i_glide_confnum>  (148) 
1

>  <i_i_glide_posenum>  (148) 
1

>  <r_i_glide_eff_state_penalty>  (148) 
0

>  <ligand_id>  (148) 
48

>  <original_smiles>  (148) 
Fc1ccc(C2c3sc4nnnn4c3N=C3CCCCC32)c(F)c1

>  <smiles>  (148) 
[H]c1c([H])c(C2([H])c3sc4nnnn4c3N=C3C([H])([H])C([H])([H])C([H])([H])C([H])([H])C32[H])c(F)c([H])c1F

$$$$
49:0:0
     RDKit          3D

 37 39  0  0  1  0  0  0  0  0999 V2000
    3.2947   -2.4139   -3.2931 C   0  0  0  0  0  0  0  0  0  0  0  0
    3.8546   -2.4982   -1.8848 C   0  0  0  0  0  0  0  0  0  0  0  0
    3.1931   -2.9062   -0.7929 C   0  0  0  0  0  0  0  0  0  0  0  0
    4.0237   -2.9149    0.4888 C   0  0  1  0  0  0  0  0  0  0  0  0
    3.1570   -3.2973    1.7065 C   0  0  0  0  0  0  0  0  0  0  0  0
    3.9908   -3.4553    2.9843 C   0  0  0  0  0  0  0  0  0  0  0  0
    5.1453   -4.4436    2.7892 C   0  0  0  0  0  0  0  0  0  0  0  0
    6.0637   -4.0746    1.5997 C   0  0  1  0  0  0  0  0  0  0  0  0
    7.2091   -5.1154    1.5389 C   0  0  0  0  0  0  0  0  0  0  0  0
    5.2512   -3.8886    0.2654 C   0  0  1  0  0  0  0  0  0  0  0  0
    4.7543   -5.2933   -0.1670 C   0  0  0  0  0  0  0  0  0  0  0  0
    6.0650   -3.2690   -0.9527 C   0  0  2  0  0  0  0  0  0  0  0  0
    7.7062   -2.6626   -0.5563 Cl  0  0  0  0  0  0  0  0  0  0  0  0
    5.2919   -2.0941   -1.6100 C   0  0  2  0  0  0  0  0  0  0  0  0
    5.2752   -1.0717   -0.6076 O   0  0  0  0  0  0  0  0  0  0  0  0
    4.5770   -1.4565    0.5959 C   0  0  0  0  0  0  0  0  0  0  0  0
    3.3614   -1.3970   -3.6793 H   0  0  0  0  0  0  0  0  0  0  0  0
    2.2461   -2.7148   -3.3060 H   0  0  0  0  0  0  0  0  0  0  0  0
    3.8431   -3.0772   -3.9618 H   0  0  0  0  0  0  0  0  0  0  0  0
    2.1580   -3.2148   -0.7968 H   0  0  0  0  0  0  0  0  0  0  0  0
    2.3825   -2.5462    1.8640 H   0  0  0  0  0  0  0  0  0  0  0  0
    2.6333   -4.2317    1.5046 H   0  0  0  0  0  0  0  0  0  0  0  0
    4.3872   -2.4902    3.3009 H   0  0  0  0  0  0  0  0  0  0  0  0
    3.3497   -3.8050    3.7942 H   0  0  0  0  0  0  0  0  0  0  0  0
    5.7339   -4.4793    3.7060 H   0  0  0  0  0  0  0  0  0  0  0  0
    4.7373   -5.4475    2.6628 H   0  0  0  0  0  0  0  0  0  0  0  0
    6.5244   -3.1196    1.8484 H   0  0  0  0  0  0  0  0  0  0  0  0
    6.8318   -6.1387    1.5268 H   0  0  0  0  0  0  0  0  0  0  0  0
    7.8455   -5.0408    2.4198 H   0  0  0  0  0  0  0  0  0  0  0  0
    7.8516   -4.9935    0.6680 H   0  0  0  0  0  0  0  0  0  0  0  0
    5.5723   -5.9906   -0.3286 H   0  0  0  0  0  0  0  0  0  0  0  0
    4.2296   -5.2416   -1.1173 H   0  0  0  0  0  0  0  0  0  0  0  0
    4.0689   -5.7504    0.5434 H   0  0  0  0  0  0  0  0  0  0  0  0
    6.2114   -4.0249   -1.7215 H   0  0  0  0  0  0  0  0  0  0  0  0
    5.7871   -1.7409   -2.5146 H   0  0  0  0  0  0  0  0  0  0  0  0
    3.7577   -0.7509    0.7384 H   0  0  0  0  0  0  0  0  0  0  0  0
    5.2465   -1.3258    1.4463 H   0  0  0  0  0  0  0  0  0  0  0  0
  1  2  1  0
  1 17  1  0
  1 18  1  0
  1 19  1  0
  2 14  1  0
  2  3  2  0
  3  4  1  0
  3 20  1  0
  4 10  1  0
  4 16  1  0
  4  5  1  1
  5  6  1  0
  5 21  1  0
  5 22  1  0
  6  7  1  0
  6 23  1  0
  6 24  1  0
  7  8  1  0
  7 25  1  0
  7 26  1  0
  8  9  1  0
  8 10  1  0
  8 27  1  1
  9 28  1  0
  9 29  1  0
  9 30  1  0
 10 11  1  6
 10 12  1  0
 11 31  1  0
 11 32  1  0
 11 33  1  0
 12 13  1  0
 12 14  1  0
 12 34  1  6
 14 15  1  0
 14 35  1  6
 15 16  1  0
 16 36  1  0
 16 37  1  0
M  END
>  <i_m_ct_stereo_status>  (149) 
1

>  <s_m_source_file>  (149) 
/var/tmp/pbs.5076255.sched01/tmpmmp70uc3/38qnywpnyg.sdf

>  <i_m_source_file_index>  (149) 
30

>  <i_lp_mmshare_version>  (149) 
48012

>  <i_f3d_flags>  (149) 
0

>  <s_epik_input>  (149) 
W0NIM11DKD1bQ0hdMSlbQ0BASF0oT1tDSDJdMilbQ0BASF0oQ2wpW0NAQF0oW0NAXTEyMykoW0NIM10pW0NASF0oW0NIM10pW0NIMl1bQ0gyXVtDSDJdMw==

>  <s_epik_cmdline>  (149) 
J2VwaWtfcHl0aG9uJywgJy1waHQnLCAnMi4wJywgJy1waCcsICc3LjAnLCAnLXRuJywgJzgnLCAnLW1hJywgJzIwMCcsICctaW1hZScsICc8aW5maWxlLm1hZT4nLCAnLW9tYWUnLCAnPG91dGZpbGUubWFlPic=

>  <r_lp_tautomer_probability>  (149) 
1

>  <r_epik_Ionization_Penalty>  (149) 
4.08225e-13

>  <r_epik_Ionization_Penalty_Charging>  (149) 
0

>  <r_epik_Ionization_Penalty_Neutral>  (149) 
4.08225e-13

>  <r_epik_State_Penalty>  (149) 
-0

>  <r_epik_Charging_Adjusted_Penalty>  (149) 
0

>  <i_epik_Tot_Q>  (149) 
0

>  <i_epik_Tot_abs_Q>  (149) 
0

>  <s_lp_Force_Field>  (149) 
OPLS3e

>  <r_lp_Energy>  (149) 
47.6503

>  <b_lp_Chiralities_Consistent>  (149) 
1

>  <s_lp_Variant>  (149) 
49:0-1

>  <s_i_glide_gridfile>  (149) 
pfpi4k_grid

>  <i_i_glide_lignum>  (149) 
30

>  <i_i_glide_rotatable_bonds>  (149) 
0

>  <r_i_docking_score>  (149) 
-3.38245

>  <r_i_glide_ligand_efficiency>  (149) 
-0.211403

>  <r_i_glide_ligand_efficiency_sa>  (149) 
-0.532702

>  <r_i_glide_ligand_efficiency_ln>  (149) 
-0.896586

>  <r_i_glide_gscore>  (149) 
-3.38245

>  <r_i_glide_lipo>  (149) 
-0.464898

>  <r_i_glide_hbond>  (149) 
0

>  <r_i_glide_metal>  (149) 
-0

>  <r_i_glide_rewards>  (149) 
-1.76749

>  <r_i_glide_evdw>  (149) 
-21.5021

>  <r_i_glide_ecoul>  (149) 
-0.499743

>  <r_i_glide_erotb>  (149) 
0

>  <r_i_glide_esite>  (149) 
0

>  <r_i_glide_emodel>  (149) 
-26.5146

>  <r_i_glide_energy>  (149) 
-22.0018

>  <r_i_glide_einternal>  (149) 
0

>  <r_i_glide_intrahb_reward>  (149) 
-0

>  <i_i_glide_confnum>  (149) 
2

>  <i_i_glide_posenum>  (149) 
15

>  <r_i_glide_eff_state_penalty>  (149) 
0

>  <ligand_id>  (149) 
49

>  <original_smiles>  (149) 
CC1=CC23CCCC(C)C2(C)C(Cl)C1OC3

>  <smiles>  (149) 
[H]C1=C(C([H])([H])[H])C2([H])OC([H])([H])C13C([H])([H])C([H])([H])C([H])([H])C([H])(C([H])([H])[H])C3(C([H])([H])[H])C2([H])Cl

$$$$
49:0:1
     RDKit          3D

 37 39  0  0  1  0  0  0  0  0999 V2000
    7.6978   -5.6076    0.7542 C   0  0  0  0  0  0  0  0  0  0  0  0
    6.5957   -4.5973    0.4860 C   0  0  0  0  0  0  0  0  0  0  0  0
    6.7280   -3.4632   -0.1998 C   0  0  0  0  0  0  0  0  0  0  0  0
    5.4332   -2.6729   -0.3440 C   0  0  1  0  0  0  0  0  0  0  0  0
    5.7047   -1.3594   -1.0464 C   0  0  0  0  0  0  0  0  0  0  0  0
    4.4118   -0.6555   -1.3582 C   0  0  0  0  0  0  0  0  0  0  0  0
    3.4245   -1.4380   -2.1757 C   0  0  0  0  0  0  0  0  0  0  0  0
    3.0777   -2.7445   -1.4508 C   0  0  1  0  0  0  0  0  0  0  0  0
    2.0095   -3.4276   -2.3119 C   0  0  0  0  0  0  0  0  0  0  0  0
    4.3859   -3.5510   -1.1287 C   0  0  1  0  0  0  0  0  0  0  0  0
    4.9857   -3.9383   -2.5035 C   0  0  0  0  0  0  0  0  0  0  0  0
    4.1846   -4.8350   -0.2129 C   0  0  2  0  0  0  0  0  0  0  0  0
    2.5486   -5.0315    0.4837 Cl  0  0  0  0  0  0  0  0  0  0  0  0
    5.1834   -4.8545    0.9819 C   0  0  2  0  0  0  0  0  0  0  0  0
    4.8056   -3.7356    1.7978 O   0  0  0  0  0  0  0  0  0  0  0  0
    4.9217   -2.4689    1.1166 C   0  0  0  0  0  0  0  0  0  0  0  0
    7.8278   -5.7652    1.8210 H   0  0  0  0  0  0  0  0  0  0  0  0
    8.6322   -5.2632    0.3253 H   0  0  0  0  0  0  0  0  0  0  0  0
    7.4491   -6.5620    0.2967 H   0  0  0  0  0  0  0  0  0  0  0  0
    7.6439   -3.1057   -0.6424 H   0  0  0  0  0  0  0  0  0  0  0  0
    6.3065   -0.7178   -0.4089 H   0  0  0  0  0  0  0  0  0  0  0  0
    6.2515   -1.5249   -1.9734 H   0  0  0  0  0  0  0  0  0  0  0  0
    3.9495   -0.3327   -0.4309 H   0  0  0  0  0  0  0  0  0  0  0  0
    4.6319    0.1840   -1.9925 H   0  0  0  0  0  0  0  0  0  0  0  0
    2.5350   -0.8234   -2.3171 H   0  0  0  0  0  0  0  0  0  0  0  0
    3.8101   -1.6001   -3.1926 H   0  0  0  0  0  0  0  0  0  0  0  0
    2.5996   -2.4707   -0.5142 H   0  0  0  0  0  0  0  0  0  0  0  0
    2.3181   -3.5285   -3.3544 H   0  0  0  0  0  0  0  0  0  0  0  0
    1.0886   -2.8530   -2.3222 H   0  0  0  0  0  0  0  0  0  0  0  0
    1.7536   -4.4027   -1.9169 H   0  0  0  0  0  0  0  0  0  0  0  0
    4.2729   -4.4482   -3.1292 H   0  0  0  0  0  0  0  0  0  0  0  0
    5.8089   -4.6254   -2.3571 H   0  0  0  0  0  0  0  0  0  0  0  0
    5.3466   -3.1108   -3.1112 H   0  0  0  0  0  0  0  0  0  0  0  0
    4.3512   -5.7288   -0.7954 H   0  0  0  0  0  0  0  0  0  0  0  0
    5.1195   -5.7826    1.5466 H   0  0  0  0  0  0  0  0  0  0  0  0
    5.6219   -1.8522    1.6797 H   0  0  0  0  0  0  0  0  0  0  0  0
    3.9569   -1.9572    1.1596 H   0  0  0  0  0  0  0  0  0  0  0  0
  1  2  1  0
  1 17  1  0
  1 18  1  0
  1 19  1  0
  2 14  1  0
  2  3  2  0
  3  4  1  0
  3 20  1  0
  4 10  1  0
  4 16  1  0
  4  5  1  6
  5  6  1  0
  5 21  1  0
  5 22  1  0
  6  7  1  0
  6 23  1  0
  6 24  1  0
  7  8  1  0
  7 25  1  0
  7 26  1  0
  8  9  1  0
  8 10  1  0
  8 27  1  1
  9 28  1  0
  9 29  1  0
  9 30  1  0
 10 11  1  6
 10 12  1  0
 11 31  1  0
 11 32  1  0
 11 33  1  0
 12 13  1  0
 12 14  1  0
 12 34  1  6
 14 15  1  0
 14 35  1  1
 15 16  1  0
 16 36  1  0
 16 37  1  0
M  END
>  <i_m_ct_stereo_status>  (150) 
1

>  <s_m_source_file>  (150) 
/var/tmp/pbs.5076255.sched01/tmpmmp70uc3/38qnywpnyg.sdf

>  <i_m_source_file_index>  (150) 
30

>  <i_lp_mmshare_version>  (150) 
48012

>  <i_f3d_flags>  (150) 
0

>  <s_epik_input>  (150) 
W0NIM11DKD1bQ0hdMSlbQ0BASF0oT1tDSDJdMilbQ0BASF0oQ2wpW0NAQF0oW0NAXTEyMykoW0NIM10pW0NASF0oW0NIM10pW0NIMl1bQ0gyXVtDSDJdMw==

>  <s_epik_cmdline>  (150) 
J2VwaWtfcHl0aG9uJywgJy1waHQnLCAnMi4wJywgJy1waCcsICc3LjAnLCAnLXRuJywgJzgnLCAnLW1hJywgJzIwMCcsICctaW1hZScsICc8aW5maWxlLm1hZT4nLCAnLW9tYWUnLCAnPG91dGZpbGUubWFlPic=

>  <r_lp_tautomer_probability>  (150) 
1

>  <r_epik_Ionization_Penalty>  (150) 
4.08225e-13

>  <r_epik_Ionization_Penalty_Charging>  (150) 
0

>  <r_epik_Ionization_Penalty_Neutral>  (150) 
4.08225e-13

>  <r_epik_State_Penalty>  (150) 
-0

>  <r_epik_Charging_Adjusted_Penalty>  (150) 
0

>  <i_epik_Tot_Q>  (150) 
0

>  <i_epik_Tot_abs_Q>  (150) 
0

>  <s_lp_Force_Field>  (150) 
OPLS3e

>  <r_lp_Energy>  (150) 
47.6503

>  <b_lp_Chiralities_Consistent>  (150) 
1

>  <s_lp_Variant>  (150) 
49:0-1

>  <s_i_glide_gridfile>  (150) 
pfpi4k_grid

>  <i_i_glide_lignum>  (150) 
30

>  <i_i_glide_rotatable_bonds>  (150) 
0

>  <r_i_docking_score>  (150) 
-3.21427

>  <r_i_glide_ligand_efficiency>  (150) 
-0.200892

>  <r_i_glide_ligand_efficiency_sa>  (150) 
-0.506216

>  <r_i_glide_ligand_efficiency_ln>  (150) 
-0.852008

>  <r_i_glide_gscore>  (150) 
-3.21427

>  <r_i_glide_lipo>  (150) 
-0.606154

>  <r_i_glide_hbond>  (150) 
0

>  <r_i_glide_metal>  (150) 
-0

>  <r_i_glide_rewards>  (150) 
-1.76749

>  <r_i_glide_evdw>  (150) 
-14.5958

>  <r_i_glide_ecoul>  (150) 
-0.738969

>  <r_i_glide_erotb>  (150) 
0

>  <r_i_glide_esite>  (150) 
0

>  <r_i_glide_emodel>  (150) 
-19.1625

>  <r_i_glide_energy>  (150) 
-15.3347

>  <r_i_glide_einternal>  (150) 
0

>  <r_i_glide_intrahb_reward>  (150) 
-0

>  <i_i_glide_confnum>  (150) 
1

>  <i_i_glide_posenum>  (150) 
2

>  <r_i_glide_eff_state_penalty>  (150) 
0

>  <ligand_id>  (150) 
49

>  <original_smiles>  (150) 
CC1=CC23CCCC(C)C2(C)C(Cl)C1OC3

>  <smiles>  (150) 
[H]C1=C(C([H])([H])[H])C2([H])OC([H])([H])C13C([H])([H])C([H])([H])C([H])([H])C([H])(C([H])([H])[H])C3(C([H])([H])[H])C2([H])Cl

$$$$
49:0:2
     RDKit          3D

 37 39  0  0  1  0  0  0  0  0999 V2000
    3.1388   -0.4523   -3.4714 C   0  0  0  0  0  0  0  0  0  0  0  0
    3.8590   -1.4454   -2.5899 C   0  0  0  0  0  0  0  0  0  0  0  0
    5.0861   -1.2949   -2.0782 C   0  0  0  0  0  0  0  0  0  0  0  0
    5.5796   -2.4595   -1.2282 C   0  0  1  0  0  0  0  0  0  0  0  0
    7.0465   -2.2687   -0.7910 C   0  0  0  0  0  0  0  0  0  0  0  0
    7.5166   -3.3551    0.1772 C   0  0  0  0  0  0  0  0  0  0  0  0
    6.5750   -3.4677    1.3794 C   0  0  0  0  0  0  0  0  0  0  0  0
    5.1023   -3.7047    0.9901 C   0  0  1  0  0  0  0  0  0  0  0  0
    4.2894   -3.8481    2.2995 C   0  0  0  0  0  0  0  0  0  0  0  0
    4.5800   -2.6108   -0.0161 C   0  0  1  0  0  0  0  0  0  0  0  0
    4.4591   -1.2511    0.7457 C   0  0  0  0  0  0  0  0  0  0  0  0
    3.1699   -2.9366   -0.6689 C   0  0  2  0  0  0  0  0  0  0  0  0
    2.5040   -4.5546   -0.2889 Cl  0  0  0  0  0  0  0  0  0  0  0  0
    3.2071   -2.7661   -2.2218 C   0  0  2  0  0  0  0  0  0  0  0  0
    4.0956   -3.7726   -2.7072 O   0  0  0  0  0  0  0  0  0  0  0  0
    5.4172   -3.7020   -2.1551 C   0  0  0  0  0  0  0  0  0  0  0  0
    2.8479   -0.8924   -4.4230 H   0  0  0  0  0  0  0  0  0  0  0  0
    3.7603    0.4233   -3.6593 H   0  0  0  0  0  0  0  0  0  0  0  0
    2.2413   -0.1127   -2.9567 H   0  0  0  0  0  0  0  0  0  0  0  0
    5.6959   -0.4208   -2.2460 H   0  0  0  0  0  0  0  0  0  0  0  0
    7.7000   -2.2630   -1.6631 H   0  0  0  0  0  0  0  0  0  0  0  0
    7.1561   -1.3026   -0.3025 H   0  0  0  0  0  0  0  0  0  0  0  0
    7.5855   -4.3198   -0.3237 H   0  0  0  0  0  0  0  0  0  0  0  0
    8.5231   -3.1166    0.5287 H   0  0  0  0  0  0  0  0  0  0  0  0
    6.9221   -4.2795    2.0196 H   0  0  0  0  0  0  0  0  0  0  0  0
    6.6415   -2.5614    1.9801 H   0  0  0  0  0  0  0  0  0  0  0  0
    5.0702   -4.6763    0.4994 H   0  0  0  0  0  0  0  0  0  0  0  0
    4.4537   -3.0116    2.9792 H   0  0  0  0  0  0  0  0  0  0  0  0
    4.5881   -4.7548    2.8251 H   0  0  0  0  0  0  0  0  0  0  0  0
    3.2157   -3.9159    2.1319 H   0  0  0  0  0  0  0  0  0  0  0  0
    3.7627   -1.3203    1.5802 H   0  0  0  0  0  0  0  0  0  0  0  0
    4.0812   -0.4459    0.1181 H   0  0  0  0  0  0  0  0  0  0  0  0
    5.4146   -0.9094    1.1458 H   0  0  0  0  0  0  0  0  0  0  0  0
    2.4353   -2.2533   -0.2587 H   0  0  0  0  0  0  0  0  0  0  0  0
    2.2187   -2.8702   -2.6712 H   0  0  0  0  0  0  0  0  0  0  0  0
    6.1155   -3.6465   -2.9919 H   0  0  0  0  0  0  0  0  0  0  0  0
    5.6222   -4.6328   -1.6297 H   0  0  0  0  0  0  0  0  0  0  0  0
  1  2  1  0
  1 17  1  0
  1 18  1  0
  1 19  1  0
  2 14  1  0
  2  3  2  0
  3  4  1  0
  3 20  1  0
  4 10  1  0
  4 16  1  0
  4  5  1  1
  5  6  1  0
  5 21  1  0
  5 22  1  0
  6  7  1  0
  6 23  1  0
  6 24  1  0
  7  8  1  0
  7 25  1  0
  7 26  1  0
  8  9  1  0
  8 10  1  0
  8 27  1  6
  9 28  1  0
  9 29  1  0
  9 30  1  0
 10 11  1  1
 10 12  1  0
 11 31  1  0
 11 32  1  0
 11 33  1  0
 12 13  1  0
 12 14  1  0
 12 34  1  1
 14 15  1  0
 14 35  1  6
 15 16  1  0
 16 36  1  0
 16 37  1  0
M  END
>  <i_m_ct_stereo_status>  (151) 
1

>  <s_m_source_file>  (151) 
/var/tmp/pbs.5076255.sched01/tmpmmp70uc3/38qnywpnyg.sdf

>  <i_m_source_file_index>  (151) 
30

>  <i_lp_mmshare_version>  (151) 
48012

>  <i_f3d_flags>  (151) 
0

>  <s_epik_input>  (151) 
W0NIM11DKD1bQ0hdMSlbQ0BASF0oT1tDSDJdMilbQ0BASF0oQ2wpW0NAQF0oW0NAXTEyMykoW0NIM10pW0NASF0oW0NIM10pW0NIMl1bQ0gyXVtDSDJdMw==

>  <s_epik_cmdline>  (151) 
J2VwaWtfcHl0aG9uJywgJy1waHQnLCAnMi4wJywgJy1waCcsICc3LjAnLCAnLXRuJywgJzgnLCAnLW1hJywgJzIwMCcsICctaW1hZScsICc8aW5maWxlLm1hZT4nLCAnLW9tYWUnLCAnPG91dGZpbGUubWFlPic=

>  <r_lp_tautomer_probability>  (151) 
1

>  <r_epik_Ionization_Penalty>  (151) 
4.08225e-13

>  <r_epik_Ionization_Penalty_Charging>  (151) 
0

>  <r_epik_Ionization_Penalty_Neutral>  (151) 
4.08225e-13

>  <r_epik_State_Penalty>  (151) 
-0

>  <r_epik_Charging_Adjusted_Penalty>  (151) 
0

>  <i_epik_Tot_Q>  (151) 
0

>  <i_epik_Tot_abs_Q>  (151) 
0

>  <s_lp_Force_Field>  (151) 
OPLS3e

>  <r_lp_Energy>  (151) 
47.6503

>  <b_lp_Chiralities_Consistent>  (151) 
1

>  <s_lp_Variant>  (151) 
49:0-1

>  <s_i_glide_gridfile>  (151) 
pfpi4k_grid

>  <i_i_glide_lignum>  (151) 
30

>  <i_i_glide_rotatable_bonds>  (151) 
0

>  <r_i_docking_score>  (151) 
-3.1878

>  <r_i_glide_ligand_efficiency>  (151) 
-0.199237

>  <r_i_glide_ligand_efficiency_sa>  (151) 
-0.502047

>  <r_i_glide_ligand_efficiency_ln>  (151) 
-0.84499

>  <r_i_glide_gscore>  (151) 
-3.1878

>  <r_i_glide_lipo>  (151) 
-0.57299

>  <r_i_glide_hbond>  (151) 
0

>  <r_i_glide_metal>  (151) 
-0

>  <r_i_glide_rewards>  (151) 
-1.76749

>  <r_i_glide_evdw>  (151) 
-18.5821

>  <r_i_glide_ecoul>  (151) 
0.545213

>  <r_i_glide_erotb>  (151) 
0

>  <r_i_glide_esite>  (151) 
0

>  <r_i_glide_emodel>  (151) 
-22.288

>  <r_i_glide_energy>  (151) 
-18.0369

>  <r_i_glide_einternal>  (151) 
0

>  <r_i_glide_intrahb_reward>  (151) 
-0

>  <i_i_glide_confnum>  (151) 
2

>  <i_i_glide_posenum>  (151) 
24

>  <r_i_glide_eff_state_penalty>  (151) 
0

>  <ligand_id>  (151) 
49

>  <original_smiles>  (151) 
CC1=CC23CCCC(C)C2(C)C(Cl)C1OC3

>  <smiles>  (151) 
[H]C1=C(C([H])([H])[H])C2([H])OC([H])([H])C13C([H])([H])C([H])([H])C([H])([H])C([H])(C([H])([H])[H])C3(C([H])([H])[H])C2([H])Cl

$$$$
50:0:0
     RDKit          3D

 16 17  0  0  1  0  0  0  0  0999 V2000
    0.6007   -2.5163    4.3399 C   0  0  0  0  0  0  0  0  0  0  0  0
   -0.3176   -1.3893    4.6708 C   0  0  0  0  0  0  0  0  0  0  0  0
   -1.2017   -1.3800    5.6740 N   0  0  0  0  0  0  0  0  0  0  0  0
   -1.8629   -0.1615    5.6655 N   0  0  0  0  0  0  0  0  0  0  0  0
   -1.3838    0.5419    4.6335 C   0  0  0  0  0  0  0  0  0  0  0  0
   -1.6565    1.8220    4.0849 C   0  0  0  0  0  0  0  0  0  0  0  0
   -0.9537    2.2142    2.9720 C   0  0  0  0  0  0  0  0  0  0  0  0
    0.0137    1.3415    2.4227 C   0  0  0  0  0  0  0  0  0  0  0  0
    0.3432    0.1373    2.8853 N   0  0  0  0  0  0  0  0  0  0  0  0
   -0.3889   -0.2134    3.9818 N   0  0  0  0  0  0  0  0  0  0  0  0
    0.4596   -3.3277    5.0538 H   0  0  0  0  0  0  0  0  0  0  0  0
    1.6382   -2.1853    4.3906 H   0  0  0  0  0  0  0  0  0  0  0  0
    0.3950   -2.8937    3.3380 H   0  0  0  0  0  0  0  0  0  0  0  0
   -2.4137    2.4566    4.5313 H   0  0  0  0  0  0  0  0  0  0  0  0
   -1.1266    3.1821    2.5082 H   0  0  0  0  0  0  0  0  0  0  0  0
    0.5541    1.6646    1.5372 H   0  0  0  0  0  0  0  0  0  0  0  0
  1  2  1  0
  1 11  1  0
  1 12  1  0
  1 13  1  0
  2 10  1  0
  2  3  2  0
  3  4  1  0
  4  5  2  0
  5 10  1  0
  5  6  1  0
  6  7  2  0
  6 14  1  0
  7  8  1  0
  7 15  1  0
  8  9  2  0
  8 16  1  0
  9 10  1  0
M  END
>  <i_m_ct_stereo_status>  (152) 
1

>  <s_m_source_file>  (152) 
/var/tmp/pbs.5076255.sched01/tmpmmp70uc3/38qnywpnyg.sdf

>  <i_m_source_file_index>  (152) 
31

>  <i_lp_mmshare_version>  (152) 
48012

>  <i_f3d_flags>  (152) 
0

>  <s_epik_input>  (152) 
bjFuYyhbQ0gzXSluKGMxMiluW2NIXVtjSF1bY0hdMg==

>  <s_epik_cmdline>  (152) 
J2VwaWtfcHl0aG9uJywgJy1waHQnLCAnMi4wJywgJy1waCcsICc3LjAnLCAnLXRuJywgJzgnLCAnLW1hJywgJzIwMCcsICctaW1hZScsICc8aW5maWxlLm1hZT4nLCAnLW9tYWUnLCAnPG91dGZpbGUubWFlPic=

>  <r_lp_tautomer_probability>  (152) 
1

>  <r_epik_Ionization_Penalty>  (152) 
3.47523e-07

>  <r_epik_Ionization_Penalty_Charging>  (152) 
0

>  <r_epik_Ionization_Penalty_Neutral>  (152) 
3.47523e-07

>  <r_epik_State_Penalty>  (152) 
-0

>  <r_epik_Charging_Adjusted_Penalty>  (152) 
0

>  <i_epik_Tot_Q>  (152) 
0

>  <i_epik_Tot_abs_Q>  (152) 
0

>  <s_lp_Force_Field>  (152) 
OPLS3e

>  <r_lp_Energy>  (152) 
13.7077

>  <b_lp_Chiralities_Consistent>  (152) 
1

>  <s_lp_Variant>  (152) 
50:0-1

>  <s_i_glide_gridfile>  (152) 
pfpi4k_grid

>  <i_i_glide_lignum>  (152) 
31

>  <i_i_glide_rotatable_bonds>  (152) 
0

>  <r_i_docking_score>  (152) 
-3.83291

>  <r_i_glide_ligand_efficiency>  (152) 
-0.383291

>  <r_i_glide_ligand_efficiency_sa>  (152) 
-0.825775

>  <r_i_glide_ligand_efficiency_ln>  (152) 
-1.16058

>  <r_i_glide_gscore>  (152) 
-3.83291

>  <r_i_glide_lipo>  (152) 
-0.0422257

>  <r_i_glide_hbond>  (152) 
0

>  <r_i_glide_metal>  (152) 
-0

>  <r_i_glide_rewards>  (152) 
-2.25

>  <r_i_glide_evdw>  (152) 
-13.69

>  <r_i_glide_ecoul>  (152) 
-4.32416

>  <r_i_glide_erotb>  (152) 
0

>  <r_i_glide_esite>  (152) 
-0.20756

>  <r_i_glide_emodel>  (152) 
-23.3028

>  <r_i_glide_energy>  (152) 
-18.0141

>  <r_i_glide_einternal>  (152) 
0

>  <r_i_glide_intrahb_reward>  (152) 
-0

>  <i_i_glide_confnum>  (152) 
1

>  <i_i_glide_posenum>  (152) 
16

>  <r_i_glide_eff_state_penalty>  (152) 
0

>  <ligand_id>  (152) 
50

>  <original_smiles>  (152) 
Cc1nnc2cccnn12

>  <smiles>  (152) 
[H]c1nn2c(C([H])([H])[H])nnc2c([H])c1[H]

$$$$
50:0:1
     RDKit          3D

 16 17  0  0  1  0  0  0  0  0999 V2000
    4.8364   -1.3988    1.1891 C   0  0  0  0  0  0  0  0  0  0  0  0
    3.9878   -2.2412    0.2951 C   0  0  0  0  0  0  0  0  0  0  0  0
    3.2810   -3.3078    0.6787 N   0  0  0  0  0  0  0  0  0  0  0  0
    2.6237   -3.8222   -0.4300 N   0  0  0  0  0  0  0  0  0  0  0  0
    2.9507   -3.0577   -1.4746 C   0  0  0  0  0  0  0  0  0  0  0  0
    2.6114   -3.0546   -2.8502 C   0  0  0  0  0  0  0  0  0  0  0  0
    3.1431   -2.0733   -3.6490 C   0  0  0  0  0  0  0  0  0  0  0  0
    4.0057   -1.1144   -3.0678 C   0  0  0  0  0  0  0  0  0  0  0  0
    4.3981   -1.0595   -1.7987 N   0  0  0  0  0  0  0  0  0  0  0  0
    3.8252   -2.0393   -1.0444 N   0  0  0  0  0  0  0  0  0  0  0  0
    4.7978   -1.7891    2.2045 H   0  0  0  0  0  0  0  0  0  0  0  0
    4.4737   -0.3702    1.1965 H   0  0  0  0  0  0  0  0  0  0  0  0
    5.8730   -1.4136    0.8513 H   0  0  0  0  0  0  0  0  0  0  0  0
    1.9452   -3.8148   -3.2440 H   0  0  0  0  0  0  0  0  0  0  0  0
    2.8878   -2.0281   -4.6996 H   0  0  0  0  0  0  0  0  0  0  0  0
    4.4019   -0.3312   -3.7041 H   0  0  0  0  0  0  0  0  0  0  0  0
  1  2  1  0
  1 11  1  0
  1 12  1  0
  1 13  1  0
  2 10  1  0
  2  3  2  0
  3  4  1  0
  4  5  2  0
  5 10  1  0
  5  6  1  0
  6  7  2  0
  6 14  1  0
  7  8  1  0
  7 15  1  0
  8  9  2  0
  8 16  1  0
  9 10  1  0
M  END
>  <i_m_ct_stereo_status>  (153) 
1

>  <s_m_source_file>  (153) 
/var/tmp/pbs.5076255.sched01/tmpmmp70uc3/38qnywpnyg.sdf

>  <i_m_source_file_index>  (153) 
31

>  <i_lp_mmshare_version>  (153) 
48012

>  <i_f3d_flags>  (153) 
0

>  <s_epik_input>  (153) 
bjFuYyhbQ0gzXSluKGMxMiluW2NIXVtjSF1bY0hdMg==

>  <s_epik_cmdline>  (153) 
J2VwaWtfcHl0aG9uJywgJy1waHQnLCAnMi4wJywgJy1waCcsICc3LjAnLCAnLXRuJywgJzgnLCAnLW1hJywgJzIwMCcsICctaW1hZScsICc8aW5maWxlLm1hZT4nLCAnLW9tYWUnLCAnPG91dGZpbGUubWFlPic=

>  <r_lp_tautomer_probability>  (153) 
1

>  <r_epik_Ionization_Penalty>  (153) 
3.47523e-07

>  <r_epik_Ionization_Penalty_Charging>  (153) 
0

>  <r_epik_Ionization_Penalty_Neutral>  (153) 
3.47523e-07

>  <r_epik_State_Penalty>  (153) 
-0

>  <r_epik_Charging_Adjusted_Penalty>  (153) 
0

>  <i_epik_Tot_Q>  (153) 
0

>  <i_epik_Tot_abs_Q>  (153) 
0

>  <s_lp_Force_Field>  (153) 
OPLS3e

>  <r_lp_Energy>  (153) 
13.7077

>  <b_lp_Chiralities_Consistent>  (153) 
1

>  <s_lp_Variant>  (153) 
50:0-1

>  <s_i_glide_gridfile>  (153) 
pfpi4k_grid

>  <i_i_glide_lignum>  (153) 
31

>  <i_i_glide_rotatable_bonds>  (153) 
0

>  <r_i_docking_score>  (153) 
-3.78495

>  <r_i_glide_ligand_efficiency>  (153) 
-0.378495

>  <r_i_glide_ligand_efficiency_sa>  (153) 
-0.815444

>  <r_i_glide_ligand_efficiency_ln>  (153) 
-1.14606

>  <r_i_glide_gscore>  (153) 
-3.78495

>  <r_i_glide_lipo>  (153) 
-0.414573

>  <r_i_glide_hbond>  (153) 
0

>  <r_i_glide_metal>  (153) 
-0

>  <r_i_glide_rewards>  (153) 
-2.2652

>  <r_i_glide_evdw>  (153) 
-16.9375

>  <r_i_glide_ecoul>  (153) 
-0.957939

>  <r_i_glide_erotb>  (153) 
0

>  <r_i_glide_esite>  (153) 
-0.114616

>  <r_i_glide_emodel>  (153) 
-23.1159

>  <r_i_glide_energy>  (153) 
-17.8954

>  <r_i_glide_einternal>  (153) 
0

>  <r_i_glide_intrahb_reward>  (153) 
-0

>  <i_i_glide_confnum>  (153) 
1

>  <i_i_glide_posenum>  (153) 
8

>  <r_i_glide_eff_state_penalty>  (153) 
0

>  <ligand_id>  (153) 
50

>  <original_smiles>  (153) 
Cc1nnc2cccnn12

>  <smiles>  (153) 
[H]c1nn2c(C([H])([H])[H])nnc2c([H])c1[H]

$$$$
50:0:2
     RDKit          3D

 16 17  0  0  1  0  0  0  0  0999 V2000
   -0.5192    1.3227    2.2773 C   0  0  0  0  0  0  0  0  0  0  0  0
   -1.2449    1.9938    3.3956 C   0  0  0  0  0  0  0  0  0  0  0  0
   -2.1307    2.9872    3.2741 N   0  0  0  0  0  0  0  0  0  0  0  0
   -2.5704    3.3489    4.5394 N   0  0  0  0  0  0  0  0  0  0  0  0
   -1.9512    2.5516    5.4113 C   0  0  0  0  0  0  0  0  0  0  0  0
   -1.9775    2.4187    6.8228 C   0  0  0  0  0  0  0  0  0  0  0  0
   -1.1679    1.4722    7.3984 C   0  0  0  0  0  0  0  0  0  0  0  0
   -0.3510    0.6688    6.5654 C   0  0  0  0  0  0  0  0  0  0  0  0
   -0.2837    0.7129    5.2385 N   0  0  0  0  0  0  0  0  0  0  0  0
   -1.0955    1.6774    4.7138 N   0  0  0  0  0  0  0  0  0  0  0  0
   -0.8231    1.7408    1.3193 H   0  0  0  0  0  0  0  0  0  0  0  0
   -0.7425    0.2578    2.2710 H   0  0  0  0  0  0  0  0  0  0  0  0
    0.5568    1.4640    2.3831 H   0  0  0  0  0  0  0  0  0  0  0  0
   -2.6118    3.0639    7.4193 H   0  0  0  0  0  0  0  0  0  0  0  0
   -1.1411    1.3629    8.4777 H   0  0  0  0  0  0  0  0  0  0  0  0
    0.2980   -0.0644    7.0294 H   0  0  0  0  0  0  0  0  0  0  0  0
  1  2  1  0
  1 11  1  0
  1 12  1  0
  1 13  1  0
  2 10  1  0
  2  3  2  0
  3  4  1  0
  4  5  2  0
  5 10  1  0
  5  6  1  0
  6  7  2  0
  6 14  1  0
  7  8  1  0
  7 15  1  0
  8  9  2  0
  8 16  1  0
  9 10  1  0
M  END
>  <i_m_ct_stereo_status>  (154) 
1

>  <s_m_source_file>  (154) 
/var/tmp/pbs.5076255.sched01/tmpmmp70uc3/38qnywpnyg.sdf

>  <i_m_source_file_index>  (154) 
31

>  <i_lp_mmshare_version>  (154) 
48012

>  <i_f3d_flags>  (154) 
0

>  <s_epik_input>  (154) 
bjFuYyhbQ0gzXSluKGMxMiluW2NIXVtjSF1bY0hdMg==

>  <s_epik_cmdline>  (154) 
J2VwaWtfcHl0aG9uJywgJy1waHQnLCAnMi4wJywgJy1waCcsICc3LjAnLCAnLXRuJywgJzgnLCAnLW1hJywgJzIwMCcsICctaW1hZScsICc8aW5maWxlLm1hZT4nLCAnLW9tYWUnLCAnPG91dGZpbGUubWFlPic=

>  <r_lp_tautomer_probability>  (154) 
1

>  <r_epik_Ionization_Penalty>  (154) 
3.47523e-07

>  <r_epik_Ionization_Penalty_Charging>  (154) 
0

>  <r_epik_Ionization_Penalty_Neutral>  (154) 
3.47523e-07

>  <r_epik_State_Penalty>  (154) 
-0

>  <r_epik_Charging_Adjusted_Penalty>  (154) 
0

>  <i_epik_Tot_Q>  (154) 
0

>  <i_epik_Tot_abs_Q>  (154) 
0

>  <s_lp_Force_Field>  (154) 
OPLS3e

>  <r_lp_Energy>  (154) 
13.7077

>  <b_lp_Chiralities_Consistent>  (154) 
1

>  <s_lp_Variant>  (154) 
50:0-1

>  <s_i_glide_gridfile>  (154) 
pfpi4k_grid

>  <i_i_glide_lignum>  (154) 
31

>  <i_i_glide_rotatable_bonds>  (154) 
0

>  <r_i_docking_score>  (154) 
-3.18014

>  <r_i_glide_ligand_efficiency>  (154) 
-0.318014

>  <r_i_glide_ligand_efficiency_sa>  (154) 
-0.68514

>  <r_i_glide_ligand_efficiency_ln>  (154) 
-0.962924

>  <r_i_glide_gscore>  (154) 
-3.18014

>  <r_i_glide_lipo>  (154) 
-0.0273625

>  <r_i_glide_hbond>  (154) 
0

>  <r_i_glide_metal>  (154) 
-0

>  <r_i_glide_rewards>  (154) 
-2.30826

>  <r_i_glide_evdw>  (154) 
-12.9641

>  <r_i_glide_ecoul>  (154) 
-0.393306

>  <r_i_glide_erotb>  (154) 
0

>  <r_i_glide_esite>  (154) 
-0.137311

>  <r_i_glide_emodel>  (154) 
-17.7468

>  <r_i_glide_energy>  (154) 
-13.3574

>  <r_i_glide_einternal>  (154) 
0

>  <r_i_glide_intrahb_reward>  (154) 
-0

>  <i_i_glide_confnum>  (154) 
2

>  <i_i_glide_posenum>  (154) 
3

>  <r_i_glide_eff_state_penalty>  (154) 
0

>  <ligand_id>  (154) 
50

>  <original_smiles>  (154) 
Cc1nnc2cccnn12

>  <smiles>  (154) 
[H]c1nn2c(C([H])([H])[H])nnc2c([H])c1[H]

$$$$
51:0:0
     RDKit          3D

 55 59  0  0  1  0  0  0  0  0999 V2000
    4.0131   -1.9300   -3.2931 C   0  0  0  0  0  0  0  0  0  0  0  0
    4.1322   -2.4721   -1.8831 C   0  0  0  0  0  0  0  0  0  0  0  0
    3.1647   -3.4542   -1.4660 C   0  0  0  0  0  0  0  0  0  0  0  0
    2.8633   -4.0883    0.0398 C   0  0  2  0  0  0  0  0  0  0  0  0
    3.7761   -3.1931    0.5583 C   0  0  2  0  0  0  0  0  0  0  0  0
    5.2509   -4.0098   -0.1472 C   0  0  0  0  0  0  0  0  0  0  0  0
    6.1401   -3.2121   -1.0176 C   0  0  0  0  0  0  0  0  0  0  0  0
    5.4619   -2.1141   -1.1296 C   0  0  0  0  0  0  0  0  0  0  0  0
    5.8380   -1.4580    0.2605 C   0  0  0  0  0  0  0  0  0  0  0  0
    6.2138   -0.2873    0.2371 O   0  0  0  0  0  0  0  0  0  0  0  0
    5.7227   -2.1229    1.8029 C   0  0  1  0  0  0  0  0  0  0  0  0
    4.4804   -1.4453    2.3210 C   0  0  0  0  0  0  0  0  0  0  0  0
    3.4662   -2.5325    2.0288 C   0  0  2  0  0  0  0  0  0  0  0  0
    3.4525   -3.5283    3.2041 C   0  0  0  0  0  0  0  0  0  0  0  0
    4.1287   -3.1527    4.5657 C   0  0  0  0  0  0  0  0  0  0  0  0
    1.9539   -3.7539    3.5676 C   0  0  0  0  0  0  0  0  0  0  0  0
    4.3353   -4.5707    2.4736 C   0  0  1  0  0  0  0  0  0  0  0  0
    4.6868   -5.6438    3.3088 O   0  0  0  0  0  0  0  0  0  0  0  0
    3.6538   -6.4338    3.8959 C   0  0  0  0  0  0  0  0  0  0  0  0
    2.5890   -7.0005    2.9239 C   0  0  1  0  0  0  0  0  0  0  0  0
    1.3209   -7.4712    3.6644 C   0  0  0  0  0  0  0  0  0  0  0  0
    2.2590   -6.0701    1.7100 C   0  0  0  0  0  0  0  0  0  0  0  0
    3.4748   -5.2703    1.1164 C   0  0  1  0  0  0  0  0  0  0  0  0
    4.2399   -6.5096    0.4692 C   0  0  0  0  0  0  0  0  0  0  0  0
    5.6043   -3.6622    2.2454 O   0  0  0  0  0  0  0  0  0  0  0  0
    4.9782   -1.9679   -3.8089 H   0  0  0  0  0  0  0  0  0  0  0  0
    3.6815   -0.8901   -3.2649 H   0  0  0  0  0  0  0  0  0  0  0  0
    3.2883   -2.4871   -3.8899 H   0  0  0  0  0  0  0  0  0  0  0  0
    2.3746   -3.6921   -2.1639 H   0  0  0  0  0  0  0  0  0  0  0  0
    1.8512   -3.7901    0.3166 H   0  0  0  0  0  0  0  0  0  0  0  0
    3.4377   -2.1922    0.2527 H   0  0  0  0  0  0  0  0  0  0  0  0
    5.9750   -4.5906    0.4149 H   0  0  0  0  0  0  0  0  0  0  0  0
    5.0097   -4.7715   -0.8951 H   0  0  0  0  0  0  0  0  0  0  0  0
    6.3013   -3.8048   -1.9083 H   0  0  0  0  0  0  0  0  0  0  0  0
    6.5881   -1.7218    2.3209 H   0  0  0  0  0  0  0  0  0  0  0  0
    4.5768   -1.1183    3.3523 H   0  0  0  0  0  0  0  0  0  0  0  0
    4.2043   -0.5271    1.7957 H   0  0  0  0  0  0  0  0  0  0  0  0
    2.5009   -2.0149    1.9997 H   0  0  0  0  0  0  0  0  0  0  0  0
    4.0092   -3.9481    5.2974 H   0  0  0  0  0  0  0  0  0  0  0  0
    3.6735   -2.2674    5.0132 H   0  0  0  0  0  0  0  0  0  0  0  0
    5.2019   -2.9749    4.5009 H   0  0  0  0  0  0  0  0  0  0  0  0
    1.7284   -4.6597    4.1130 H   0  0  0  0  0  0  0  0  0  0  0  0
    1.2752   -3.6555    2.7241 H   0  0  0  0  0  0  0  0  0  0  0  0
    1.6255   -2.9515    4.2285 H   0  0  0  0  0  0  0  0  0  0  0  0
    4.1645   -7.2777    4.3516 H   0  0  0  0  0  0  0  0  0  0  0  0
    3.2168   -5.9254    4.7488 H   0  0  0  0  0  0  0  0  0  0  0  0
    3.0066   -7.9355    2.5484 H   0  0  0  0  0  0  0  0  0  0  0  0
    0.7598   -6.6552    4.1160 H   0  0  0  0  0  0  0  0  0  0  0  0
    1.5776   -8.1666    4.4643 H   0  0  0  0  0  0  0  0  0  0  0  0
    0.6488   -7.9985    2.9876 H   0  0  0  0  0  0  0  0  0  0  0  0
    1.8637   -6.7101    0.9241 H   0  0  0  0  0  0  0  0  0  0  0  0
    1.3801   -5.4715    1.8990 H   0  0  0  0  0  0  0  0  0  0  0  0
    4.0100   -7.4867    0.8663 H   0  0  0  0  0  0  0  0  0  0  0  0
    5.3221   -6.4955    0.5453 H   0  0  0  0  0  0  0  0  0  0  0  0
    3.9798   -6.6140   -0.5812 H   0  0  0  0  0  0  0  0  0  0  0  0
  1  2  1  0
  1 26  1  0
  1 27  1  0
  1 28  1  0
  2  8  1  0
  2  3  2  0
  3  4  1  0
  3 29  1  0
  4 23  1  0
  4  5  1  0
  4 30  1  1
  5 13  1  0
  5  6  1  0
  5 31  1  6
  6  7  1  0
  6 32  1  0
  6 33  1  0
  7  8  2  0
  7 34  1  0
  8  9  1  0
  9 10  2  0
  9 11  1  0
 11 25  1  0
 11 12  1  0
 11 35  1  1
 12 13  1  0
 12 36  1  0
 12 37  1  0
 13 14  1  0
 13 38  1  6
 14 15  1  0
 14 16  1  0
 14 17  1  0
 15 39  1  0
 15 40  1  0
 15 41  1  0
 16 42  1  0
 16 43  1  0
 16 44  1  0
 17 23  1  0
 17 18  1  1
 17 25  1  0
 18 19  1  0
 19 20  1  0
 19 45  1  0
 19 46  1  0
 20 21  1  0
 20 22  1  0
 20 47  1  6
 21 48  1  0
 21 49  1  0
 21 50  1  0
 22 23  1  0
 22 51  1  0
 22 52  1  0
 23 24  1  6
 24 53  1  0
 24 54  1  0
 24 55  1  0
M  END
>  <i_m_ct_stereo_status>  (155) 
1

>  <s_m_source_file>  (155) 
/var/tmp/pbs.5076255.sched01/tmpmmp70uc3/38qnywpnyg.sdf

>  <i_m_source_file_index>  (155) 
32

>  <i_lp_mmshare_version>  (155) 
48012

>  <i_f3d_flags>  (155) 
0

>  <s_epik_input>  (155) 
W0NIM11DKD1bQ0hdMSlDKD1bQ0hdW0NIMl0yKUMoPU8pW0NASF0oTzMpW0NIMl1bQ0BIXShDNChbQ0gzXSlbQ0gzXSlbQ0BASF0yW0NAQEhdMVtDQF0oW0NAQF0zNDUpKFtDSDNdKVtDSDJdW0NAQEhdKFtDSDJdTzUpW0NIM10=

>  <s_epik_cmdline>  (155) 
J2VwaWtfcHl0aG9uJywgJy1waHQnLCAnMi4wJywgJy1waCcsICc3LjAnLCAnLXRuJywgJzgnLCAnLW1hJywgJzIwMCcsICctaW1hZScsICc8aW5maWxlLm1hZT4nLCAnLW9tYWUnLCAnPG91dGZpbGUubWFlPic=

>  <r_lp_tautomer_probability>  (155) 
1

>  <r_epik_Ionization_Penalty>  (155) 
1.76683e-12

>  <r_epik_Ionization_Penalty_Charging>  (155) 
0

>  <r_epik_Ionization_Penalty_Neutral>  (155) 
1.76683e-12

>  <r_epik_State_Penalty>  (155) 
-0

>  <r_epik_Charging_Adjusted_Penalty>  (155) 
0

>  <i_epik_Tot_Q>  (155) 
0

>  <i_epik_Tot_abs_Q>  (155) 
0

>  <s_lp_Force_Field>  (155) 
OPLS3e

>  <r_lp_Energy>  (155) 
516.956

>  <b_lp_Chiralities_Consistent>  (155) 
1

>  <s_lp_Variant>  (155) 
51:0-1

>  <s_i_glide_gridfile>  (155) 
pfpi4k_grid

>  <i_i_glide_lignum>  (155) 
32

>  <i_i_glide_rotatable_bonds>  (155) 
0

>  <r_i_docking_score>  (155) 
-3.10721

>  <r_i_glide_ligand_efficiency>  (155) 
-0.124288

>  <r_i_glide_ligand_efficiency_sa>  (155) 
-0.363422

>  <r_i_glide_ligand_efficiency_ln>  (155) 
-0.736502

>  <r_i_glide_gscore>  (155) 
-3.10721

>  <r_i_glide_lipo>  (155) 
-0.663022

>  <r_i_glide_hbond>  (155) 
0

>  <r_i_glide_metal>  (155) 
-0

>  <r_i_glide_rewards>  (155) 
-1.1571

>  <r_i_glide_evdw>  (155) 
-25.1792

>  <r_i_glide_ecoul>  (155) 
-0.187491

>  <r_i_glide_erotb>  (155) 
0

>  <r_i_glide_esite>  (155) 
0

>  <r_i_glide_emodel>  (155) 
-30.1076

>  <r_i_glide_energy>  (155) 
-25.3667

>  <r_i_glide_einternal>  (155) 
0

>  <r_i_glide_intrahb_reward>  (155) 
-0

>  <i_i_glide_confnum>  (155) 
2

>  <i_i_glide_posenum>  (155) 
5

>  <r_i_glide_eff_state_penalty>  (155) 
0

>  <ligand_id>  (155) 
51

>  <original_smiles>  (155) 
CC1=CC2C3CC=C1C(=O)C1CC3C(C)(C)C3(OCC(C)CC23C)O1

>  <smiles>  (155) 
[H]C1=C2C(=O)C3([H])OC45OC([H])([H])C([H])(C([H])([H])[H])C([H])([H])C4(C([H])([H])[H])C([H])(C([H])=C2C([H])([H])[H])C([H])(C1([H])[H])C([H])(C3([H])[H])C5(C([H])([H])[H])C([H])([H])[H]

$$$$
51:0:1
     RDKit          3D

 55 59  0  0  1  0  0  0  0  0999 V2000
    2.2463   -8.3728    2.7959 C   0  0  0  0  0  0  0  0  0  0  0  0
    3.0691   -7.1767    2.3517 C   0  0  0  0  0  0  0  0  0  0  0  0
    2.5191   -6.3373    1.3207 C   0  0  0  0  0  0  0  0  0  0  0  0
    3.2364   -5.1172    0.4536 C   0  0  2  0  0  0  0  0  0  0  0  0
    4.4314   -5.4234    1.0637 C   0  0  2  0  0  0  0  0  0  0  0  0
    3.9714   -4.7908    2.7110 C   0  0  0  0  0  0  0  0  0  0  0  0
    4.0424   -5.7202    3.8559 C   0  0  0  0  0  0  0  0  0  0  0  0
    4.3098   -6.8390    3.2599 C   0  0  0  0  0  0  0  0  0  0  0  0
    5.8682   -6.6249    3.0402 C   0  0  0  0  0  0  0  0  0  0  0  0
    6.6137   -7.5339    3.3871 O   0  0  0  0  0  0  0  0  0  0  0  0
    6.6449   -5.3170    2.3097 C   0  0  1  0  0  0  0  0  0  0  0  0
    6.9700   -5.8694    0.9509 C   0  0  0  0  0  0  0  0  0  0  0  0
    5.8023   -5.2945    0.1698 C   0  0  2  0  0  0  0  0  0  0  0  0
    6.1621   -3.8716   -0.3017 C   0  0  0  0  0  0  0  0  0  0  0  0
    7.6478   -3.3792   -0.2431 C   0  0  0  0  0  0  0  0  0  0  0  0
    5.7678   -3.7750   -1.8151 C   0  0  0  0  0  0  0  0  0  0  0  0
    5.3590   -3.1944    0.8318 C   0  0  1  0  0  0  0  0  0  0  0  0
    5.5479   -1.8027    0.8340 O   0  0  0  0  0  0  0  0  0  0  0  0
    5.2087   -1.0654   -0.3395 C   0  0  0  0  0  0  0  0  0  0  0  0
    3.8067   -1.3191   -0.9362 C   0  0  1  0  0  0  0  0  0  0  0  0
    3.6869   -0.8246   -2.3972 C   0  0  0  0  0  0  0  0  0  0  0  0
    3.2579   -2.7679   -0.7556 C   0  0  0  0  0  0  0  0  0  0  0  0
    3.6408   -3.4674    0.5972 C   0  0  1  0  0  0  0  0  0  0  0  0
    2.7334   -2.5946    1.5710 C   0  0  0  0  0  0  0  0  0  0  0  0
    6.1180   -3.8221    2.0636 O   0  0  0  0  0  0  0  0  0  0  0  0
    2.1704   -8.4022    3.8865 H   0  0  0  0  0  0  0  0  0  0  0  0
    2.7251   -9.2952    2.4648 H   0  0  0  0  0  0  0  0  0  0  0  0
    1.2367   -8.3544    2.3842 H   0  0  0  0  0  0  0  0  0  0  0  0
    1.5837   -6.6546    0.8752 H   0  0  0  0  0  0  0  0  0  0  0  0
    3.2655   -5.4243   -0.5891 H   0  0  0  0  0  0  0  0  0  0  0  0
    4.6128   -6.4871    0.8550 H   0  0  0  0  0  0  0  0  0  0  0  0
    4.3375   -3.8706    3.1537 H   0  0  0  0  0  0  0  0  0  0  0  0
    2.9069   -4.5689    2.8080 H   0  0  0  0  0  0  0  0  0  0  0  0
    3.0935   -5.6347    4.3692 H   0  0  0  0  0  0  0  0  0  0  0  0
    7.5680   -5.2185    2.8778 H   0  0  0  0  0  0  0  0  0  0  0  0
    7.9708   -5.6094    0.6216 H   0  0  0  0  0  0  0  0  0  0  0  0
    6.9684   -6.9593    0.8918 H   0  0  0  0  0  0  0  0  0  0  0  0
    5.6947   -5.9212   -0.7183 H   0  0  0  0  0  0  0  0  0  0  0  0
    7.7415   -2.3675   -0.6320 H   0  0  0  0  0  0  0  0  0  0  0  0
    8.3076   -3.9934   -0.8564 H   0  0  0  0  0  0  0  0  0  0  0  0
    8.0689   -3.3458    0.7642 H   0  0  0  0  0  0  0  0  0  0  0  0
    5.5970   -2.7926   -2.2153 H   0  0  0  0  0  0  0  0  0  0  0  0
    4.9653   -4.4545   -2.1005 H   0  0  0  0  0  0  0  0  0  0  0  0
    6.5818   -4.1067   -2.4503 H   0  0  0  0  0  0  0  0  0  0  0  0
    5.2564   -0.0257   -0.0290 H   0  0  0  0  0  0  0  0  0  0  0  0
    5.9848   -1.1437   -1.0907 H   0  0  0  0  0  0  0  0  0  0  0  0
    3.1429   -0.6534   -0.3916 H   0  0  0  0  0  0  0  0  0  0  0  0
    4.2589   -1.4079   -3.1141 H   0  0  0  0  0  0  0  0  0  0  0  0
    4.0334    0.2041   -2.4861 H   0  0  0  0  0  0  0  0  0  0  0  0
    2.6402   -0.8361   -2.7093 H   0  0  0  0  0  0  0  0  0  0  0  0
    2.1790   -2.6912   -0.7889 H   0  0  0  0  0  0  0  0  0  0  0  0
    3.3815   -3.3602   -1.6495 H   0  0  0  0  0  0  0  0  0  0  0  0
    2.4182   -1.6256    1.2127 H   0  0  0  0  0  0  0  0  0  0  0  0
    3.1754   -2.3396    2.5289 H   0  0  0  0  0  0  0  0  0  0  0  0
    1.7901   -3.0985    1.7564 H   0  0  0  0  0  0  0  0  0  0  0  0
  1  2  1  0
  1 26  1  0
  1 27  1  0
  1 28  1  0
  2  8  1  0
  2  3  2  0
  3  4  1  0
  3 29  1  0
  4 23  1  0
  4  5  1  0
  4 30  1  6
  5 13  1  0
  5  6  1  0
  5 31  1  1
  6  7  1  0
  6 32  1  0
  6 33  1  0
  7  8  2  0
  7 34  1  0
  8  9  1  0
  9 10  2  0
  9 11  1  0
 11 25  1  0
 11 12  1  0
 11 35  1  1
 12 13  1  0
 12 36  1  0
 12 37  1  0
 13 14  1  0
 13 38  1  6
 14 15  1  0
 14 16  1  0
 14 17  1  0
 15 39  1  0
 15 40  1  0
 15 41  1  0
 16 42  1  0
 16 43  1  0
 16 44  1  0
 17 23  1  0
 17 18  1  6
 17 25  1  0
 18 19  1  0
 19 20  1  0
 19 45  1  0
 19 46  1  0
 20 21  1  0
 20 22  1  0
 20 47  1  1
 21 48  1  0
 21 49  1  0
 21 50  1  0
 22 23  1  0
 22 51  1  0
 22 52  1  0
 23 24  1  1
 24 53  1  0
 24 54  1  0
 24 55  1  0
M  END
>  <i_m_ct_stereo_status>  (156) 
1

>  <s_m_source_file>  (156) 
/var/tmp/pbs.5076255.sched01/tmpmmp70uc3/38qnywpnyg.sdf

>  <i_m_source_file_index>  (156) 
32

>  <i_lp_mmshare_version>  (156) 
48012

>  <i_f3d_flags>  (156) 
0

>  <s_epik_input>  (156) 
W0NIM11DKD1bQ0hdMSlDKD1bQ0hdW0NIMl0yKUMoPU8pW0NASF0oTzMpW0NIMl1bQ0BIXShDNChbQ0gzXSlbQ0gzXSlbQ0BASF0yW0NAQEhdMVtDQF0oW0NAQF0zNDUpKFtDSDNdKVtDSDJdW0NAQEhdKFtDSDJdTzUpW0NIM10=

>  <s_epik_cmdline>  (156) 
J2VwaWtfcHl0aG9uJywgJy1waHQnLCAnMi4wJywgJy1waCcsICc3LjAnLCAnLXRuJywgJzgnLCAnLW1hJywgJzIwMCcsICctaW1hZScsICc8aW5maWxlLm1hZT4nLCAnLW9tYWUnLCAnPG91dGZpbGUubWFlPic=

>  <r_lp_tautomer_probability>  (156) 
1

>  <r_epik_Ionization_Penalty>  (156) 
1.76683e-12

>  <r_epik_Ionization_Penalty_Charging>  (156) 
0

>  <r_epik_Ionization_Penalty_Neutral>  (156) 
1.76683e-12

>  <r_epik_State_Penalty>  (156) 
-0

>  <r_epik_Charging_Adjusted_Penalty>  (156) 
0

>  <i_epik_Tot_Q>  (156) 
0

>  <i_epik_Tot_abs_Q>  (156) 
0

>  <s_lp_Force_Field>  (156) 
OPLS3e

>  <r_lp_Energy>  (156) 
516.956

>  <b_lp_Chiralities_Consistent>  (156) 
1

>  <s_lp_Variant>  (156) 
51:0-1

>  <s_i_glide_gridfile>  (156) 
pfpi4k_grid

>  <i_i_glide_lignum>  (156) 
32

>  <i_i_glide_rotatable_bonds>  (156) 
0

>  <r_i_docking_score>  (156) 
-2.8747

>  <r_i_glide_ligand_efficiency>  (156) 
-0.114988

>  <r_i_glide_ligand_efficiency_sa>  (156) 
-0.336228

>  <r_i_glide_ligand_efficiency_ln>  (156) 
-0.681391

>  <r_i_glide_gscore>  (156) 
-2.8747

>  <r_i_glide_lipo>  (156) 
-0.592559

>  <r_i_glide_hbond>  (156) 
0

>  <r_i_glide_metal>  (156) 
-0

>  <r_i_glide_rewards>  (156) 
-1.14359

>  <r_i_glide_evdw>  (156) 
-19.9678

>  <r_i_glide_ecoul>  (156) 
-0.934408

>  <r_i_glide_erotb>  (156) 
0

>  <r_i_glide_esite>  (156) 
0

>  <r_i_glide_emodel>  (156) 
-25.1373

>  <r_i_glide_energy>  (156) 
-20.9023

>  <r_i_glide_einternal>  (156) 
0

>  <r_i_glide_intrahb_reward>  (156) 
-0

>  <i_i_glide_confnum>  (156) 
2

>  <i_i_glide_posenum>  (156) 
6

>  <r_i_glide_eff_state_penalty>  (156) 
0

>  <ligand_id>  (156) 
51

>  <original_smiles>  (156) 
CC1=CC2C3CC=C1C(=O)C1CC3C(C)(C)C3(OCC(C)CC23C)O1

>  <smiles>  (156) 
[H]C1=C2C(=O)C3([H])OC45OC([H])([H])C([H])(C([H])([H])[H])C([H])([H])C4(C([H])([H])[H])C([H])(C([H])=C2C([H])([H])[H])C([H])(C1([H])[H])C([H])(C3([H])[H])C5(C([H])([H])[H])C([H])([H])[H]

$$$$
51:0:2
     RDKit          3D

 55 59  0  0  1  0  0  0  0  0999 V2000
    1.9231   -1.8538    6.6708 C   0  0  0  0  0  0  0  0  0  0  0  0
    2.6500   -2.3375    5.4274 C   0  0  0  0  0  0  0  0  0  0  0  0
    2.4530   -1.5972    4.2071 C   0  0  0  0  0  0  0  0  0  0  0  0
    2.8936   -1.9736    2.6509 C   0  0  2  0  0  0  0  0  0  0  0  0
    3.3211   -3.2065    3.1064 C   0  0  2  0  0  0  0  0  0  0  0  0
    4.7806   -2.5766    4.0046 C   0  0  0  0  0  0  0  0  0  0  0  0
    4.8949   -2.8810    5.4451 C   0  0  0  0  0  0  0  0  0  0  0  0
    3.7494   -3.4359    5.6769 C   0  0  0  0  0  0  0  0  0  0  0  0
    4.0706   -4.8827    5.1134 C   0  0  0  0  0  0  0  0  0  0  0  0
    3.7874   -5.8368    5.8327 O   0  0  0  0  0  0  0  0  0  0  0  0
    4.6921   -5.2977    3.5985 C   0  0  1  0  0  0  0  0  0  0  0  0
    3.4505   -5.7748    2.8912 C   0  0  0  0  0  0  0  0  0  0  0  0
    3.0934   -4.5115    2.1364 C   0  0  2  0  0  0  0  0  0  0  0  0
    3.8750   -4.4844    0.8099 C   0  0  0  0  0  0  0  0  0  0  0  0
    4.5766   -5.7810    0.2816 C   0  0  0  0  0  0  0  0  0  0  0  0
    2.8406   -4.1238   -0.2998 C   0  0  0  0  0  0  0  0  0  0  0  0
    4.9559   -3.5061    1.3397 C   0  0  1  0  0  0  0  0  0  0  0  0
    5.9972   -3.3144    0.4133 O   0  0  0  0  0  0  0  0  0  0  0  0
    5.6852   -2.8091   -0.8859 C   0  0  0  0  0  0  0  0  0  0  0  0
    4.8560   -1.4996   -0.9264 C   0  0  1  0  0  0  0  0  0  0  0  0
    4.2296   -1.2551   -2.3160 C   0  0  0  0  0  0  0  0  0  0  0  0
    3.8141   -1.3564    0.2322 C   0  0  0  0  0  0  0  0  0  0  0  0
    4.2625   -1.9186    1.6306 C   0  0  1  0  0  0  0  0  0  0  0  0
    5.3531   -0.8019    1.9572 C   0  0  0  0  0  0  0  0  0  0  0  0
    5.4842   -4.3923    2.5337 O   0  0  0  0  0  0  0  0  0  0  0  0
    2.6111   -1.7800    7.5160 H   0  0  0  0  0  0  0  0  0  0  0  0
    1.1348   -2.5576    6.9391 H   0  0  0  0  0  0  0  0  0  0  0  0
    1.4638   -0.8758    6.5238 H   0  0  0  0  0  0  0  0  0  0  0  0
    1.7494   -0.7753    4.2385 H   0  0  0  0  0  0  0  0  0  0  0  0
    1.9774   -2.0766    2.0660 H   0  0  0  0  0  0  0  0  0  0  0  0
    2.4578   -3.6638    3.6098 H   0  0  0  0  0  0  0  0  0  0  0  0
    5.8117   -2.6831    3.6816 H   0  0  0  0  0  0  0  0  0  0  0  0
    4.7877   -1.4917    4.1165 H   0  0  0  0  0  0  0  0  0  0  0  0
    5.1140   -1.9416    5.9375 H   0  0  0  0  0  0  0  0  0  0  0  0
    5.3352   -6.1504    3.8081 H   0  0  0  0  0  0  0  0  0  0  0  0
    3.6174   -6.6744    2.3067 H   0  0  0  0  0  0  0  0  0  0  0  0
    2.6283   -6.0613    3.5516 H   0  0  0  0  0  0  0  0  0  0  0  0
    2.0264   -4.6140    1.9075 H   0  0  0  0  0  0  0  0  0  0  0  0
    5.0550   -5.6093   -0.6812 H   0  0  0  0  0  0  0  0  0  0  0  0
    3.8621   -6.5874    0.1092 H   0  0  0  0  0  0  0  0  0  0  0  0
    5.3591   -6.1691    0.9362 H   0  0  0  0  0  0  0  0  0  0  0  0
    3.2465   -3.7308   -1.2204 H   0  0  0  0  0  0  0  0  0  0  0  0
    2.0280   -3.4888    0.0398 H   0  0  0  0  0  0  0  0  0  0  0  0
    2.3192   -5.0318   -0.6051 H   0  0  0  0  0  0  0  0  0  0  0  0
    6.6470   -2.6028   -1.3505 H   0  0  0  0  0  0  0  0  0  0  0  0
    5.2730   -3.5890   -1.5163 H   0  0  0  0  0  0  0  0  0  0  0  0
    5.5774   -0.6907   -0.8437 H   0  0  0  0  0  0  0  0  0  0  0  0
    3.4564   -1.9800   -2.5678 H   0  0  0  0  0  0  0  0  0  0  0  0
    4.9873   -1.3030   -3.0987 H   0  0  0  0  0  0  0  0  0  0  0  0
    3.7750   -0.2656   -2.3669 H   0  0  0  0  0  0  0  0  0  0  0  0
    3.6143   -0.2921    0.3457 H   0  0  0  0  0  0  0  0  0  0  0  0
    2.8333   -1.6754   -0.0763 H   0  0  0  0  0  0  0  0  0  0  0  0
    5.7664   -0.2637    1.1168 H   0  0  0  0  0  0  0  0  0  0  0  0
    6.2570   -1.1549    2.4429 H   0  0  0  0  0  0  0  0  0  0  0  0
    4.9184   -0.0092    2.5653 H   0  0  0  0  0  0  0  0  0  0  0  0
  1  2  1  0
  1 26  1  0
  1 27  1  0
  1 28  1  0
  2  8  1  0
  2  3  2  0
  3  4  1  0
  3 29  1  0
  4 23  1  0
  4  5  1  0
  4 30  1  6
  5 13  1  0
  5  6  1  0
  5 31  1  1
  6  7  1  0
  6 32  1  0
  6 33  1  0
  7  8  2  0
  7 34  1  0
  8  9  1  0
  9 10  2  0
  9 11  1  0
 11 25  1  0
 11 12  1  0
 11 35  1  1
 12 13  1  0
 12 36  1  0
 12 37  1  0
 13 14  1  0
 13 38  1  6
 14 15  1  0
 14 16  1  0
 14 17  1  0
 15 39  1  0
 15 40  1  0
 15 41  1  0
 16 42  1  0
 16 43  1  0
 16 44  1  0
 17 23  1  0
 17 18  1  6
 17 25  1  0
 18 19  1  0
 19 20  1  0
 19 45  1  0
 19 46  1  0
 20 21  1  0
 20 22  1  0
 20 47  1  1
 21 48  1  0
 21 49  1  0
 21 50  1  0
 22 23  1  0
 22 51  1  0
 22 52  1  0
 23 24  1  1
 24 53  1  0
 24 54  1  0
 24 55  1  0
M  END
>  <i_m_ct_stereo_status>  (157) 
1

>  <s_m_source_file>  (157) 
/var/tmp/pbs.5076255.sched01/tmpmmp70uc3/38qnywpnyg.sdf

>  <i_m_source_file_index>  (157) 
32

>  <i_lp_mmshare_version>  (157) 
48012

>  <i_f3d_flags>  (157) 
0

>  <s_epik_input>  (157) 
W0NIM11DKD1bQ0hdMSlDKD1bQ0hdW0NIMl0yKUMoPU8pW0NASF0oTzMpW0NIMl1bQ0BIXShDNChbQ0gzXSlbQ0gzXSlbQ0BASF0yW0NAQEhdMVtDQF0oW0NAQF0zNDUpKFtDSDNdKVtDSDJdW0NAQEhdKFtDSDJdTzUpW0NIM10=

>  <s_epik_cmdline>  (157) 
J2VwaWtfcHl0aG9uJywgJy1waHQnLCAnMi4wJywgJy1waCcsICc3LjAnLCAnLXRuJywgJzgnLCAnLW1hJywgJzIwMCcsICctaW1hZScsICc8aW5maWxlLm1hZT4nLCAnLW9tYWUnLCAnPG91dGZpbGUubWFlPic=

>  <r_lp_tautomer_probability>  (157) 
1

>  <r_epik_Ionization_Penalty>  (157) 
1.76683e-12

>  <r_epik_Ionization_Penalty_Charging>  (157) 
0

>  <r_epik_Ionization_Penalty_Neutral>  (157) 
1.76683e-12

>  <r_epik_State_Penalty>  (157) 
-0

>  <r_epik_Charging_Adjusted_Penalty>  (157) 
0

>  <i_epik_Tot_Q>  (157) 
0

>  <i_epik_Tot_abs_Q>  (157) 
0

>  <s_lp_Force_Field>  (157) 
OPLS3e

>  <r_lp_Energy>  (157) 
516.956

>  <b_lp_Chiralities_Consistent>  (157) 
1

>  <s_lp_Variant>  (157) 
51:0-1

>  <s_i_glide_gridfile>  (157) 
pfpi4k_grid

>  <i_i_glide_lignum>  (157) 
32

>  <i_i_glide_rotatable_bonds>  (157) 
0

>  <r_i_docking_score>  (157) 
-2.60969

>  <r_i_glide_ligand_efficiency>  (157) 
-0.104388

>  <r_i_glide_ligand_efficiency_sa>  (157) 
-0.305231

>  <r_i_glide_ligand_efficiency_ln>  (157) 
-0.618574

>  <r_i_glide_gscore>  (157) 
-2.60969

>  <r_i_glide_lipo>  (157) 
-0.266603

>  <r_i_glide_hbond>  (157) 
0

>  <r_i_glide_metal>  (157) 
-0

>  <r_i_glide_rewards>  (157) 
-1.117

>  <r_i_glide_evdw>  (157) 
-22.5456

>  <r_i_glide_ecoul>  (157) 
-0.658697

>  <r_i_glide_erotb>  (157) 
0

>  <r_i_glide_esite>  (157) 
0

>  <r_i_glide_emodel>  (157) 
-27.1729

>  <r_i_glide_energy>  (157) 
-23.2043

>  <r_i_glide_einternal>  (157) 
0

>  <r_i_glide_intrahb_reward>  (157) 
-0

>  <i_i_glide_confnum>  (157) 
1

>  <i_i_glide_posenum>  (157) 
27

>  <r_i_glide_eff_state_penalty>  (157) 
0

>  <ligand_id>  (157) 
51

>  <original_smiles>  (157) 
CC1=CC2C3CC=C1C(=O)C1CC3C(C)(C)C3(OCC(C)CC23C)O1

>  <smiles>  (157) 
[H]C1=C2C(=O)C3([H])OC45OC([H])([H])C([H])(C([H])([H])[H])C([H])([H])C4(C([H])([H])[H])C([H])(C([H])=C2C([H])([H])[H])C([H])(C1([H])[H])C([H])(C3([H])[H])C5(C([H])([H])[H])C([H])([H])[H]

$$$$
53:0:0
     RDKit          3D

 33 35  0  0  1  0  0  0  0  0999 V2000
    4.2846   -6.8667    2.9212 C   0  0  0  0  0  0  0  0  0  0  0  0
    3.2878   -6.1193    2.2404 O   0  0  0  0  0  0  0  0  0  0  0  0
    3.7833   -5.3443    1.1527 C   0  0  2  0  0  0  0  0  0  0  0  0
    4.6062   -4.1168    1.6478 C   0  0  0  0  0  0  0  0  0  0  0  0
    4.9922   -3.1444    0.5035 C   0  0  0  0  0  0  0  0  0  0  0  0
    3.7202   -2.7681   -0.2589 C   0  0  1  0  0  0  0  0  0  0  0  0
    3.8065   -1.9431   -1.4978 C   0  0  0  0  0  0  0  0  0  0  0  0
    4.5848   -0.8028   -1.7314 C   0  0  0  0  0  0  0  0  0  0  0  0
    4.3376   -0.0799   -2.9109 C   0  0  0  0  0  0  0  0  0  0  0  0
    3.4033   -0.5140   -3.8638 C   0  0  0  0  0  0  0  0  0  0  0  0
    2.6644   -1.6886   -3.6435 C   0  0  0  0  0  0  0  0  0  0  0  0
    2.8570   -2.3594   -2.4274 C   0  0  0  0  0  0  0  0  0  0  0  0
    2.0867   -3.5279   -1.9276 C   0  0  0  0  0  0  0  0  0  0  0  0
    3.0455   -4.0210   -0.8148 C   0  0  2  0  0  0  0  0  0  0  0  0
    2.5501   -4.9182    0.3160 C   0  0  0  0  0  0  0  0  0  0  0  0
    3.8040   -7.5318    3.6426 H   0  0  0  0  0  0  0  0  0  0  0  0
    4.9682   -6.2182    3.4728 H   0  0  0  0  0  0  0  0  0  0  0  0
    4.8595   -7.4835    2.2269 H   0  0  0  0  0  0  0  0  0  0  0  0
    4.4085   -5.9772    0.5156 H   0  0  0  0  0  0  0  0  0  0  0  0
    4.0030   -3.5893    2.3908 H   0  0  0  0  0  0  0  0  0  0  0  0
    5.5022   -4.4598    2.1703 H   0  0  0  0  0  0  0  0  0  0  0  0
    5.4853   -2.2620    0.9099 H   0  0  0  0  0  0  0  0  0  0  0  0
    5.7238   -3.6117   -0.1573 H   0  0  0  0  0  0  0  0  0  0  0  0
    3.0415   -2.2430    0.4172 H   0  0  0  0  0  0  0  0  0  0  0  0
    5.2920   -0.4592   -0.9947 H   0  0  0  0  0  0  0  0  0  0  0  0
    4.8230    0.8742   -3.0799 H   0  0  0  0  0  0  0  0  0  0  0  0
    3.2367    0.0828   -4.7482 H   0  0  0  0  0  0  0  0  0  0  0  0
    1.8900   -2.0077   -4.3303 H   0  0  0  0  0  0  0  0  0  0  0  0
    1.1374   -3.1629   -1.5320 H   0  0  0  0  0  0  0  0  0  0  0  0
    1.8801   -4.2424   -2.7253 H   0  0  0  0  0  0  0  0  0  0  0  0
    3.8347   -4.5636   -1.3432 H   0  0  0  0  0  0  0  0  0  0  0  0
    2.0425   -5.8030   -0.0819 H   0  0  0  0  0  0  0  0  0  0  0  0
    1.8367   -4.4001    0.9614 H   0  0  0  0  0  0  0  0  0  0  0  0
  1  2  1  0
  1 16  1  0
  1 17  1  0
  1 18  1  0
  2  3  1  0
  3 15  1  0
  3  4  1  0
  3 19  1  6
  4  5  1  0
  4 20  1  0
  4 21  1  0
  5  6  1  0
  5 22  1  0
  5 23  1  0
  6 14  1  0
  6  7  1  0
  6 24  1  1
  7 12  2  0
  7  8  1  0
  8  9  2  0
  8 25  1  0
  9 10  1  0
  9 26  1  0
 10 11  2  0
 10 27  1  0
 11 12  1  0
 11 28  1  0
 12 13  1  0
 13 14  1  0
 13 29  1  0
 13 30  1  0
 14 15  1  0
 14 31  1  6
 15 32  1  0
 15 33  1  0
M  END
>  <i_m_ct_stereo_status>  (158) 
1

>  <s_m_source_file>  (158) 
/var/tmp/pbs.5076255.sched01/tmpmmp70uc3/38qnywpnyg.sdf

>  <i_m_source_file_index>  (158) 
34

>  <i_lp_mmshare_version>  (158) 
48012

>  <i_f3d_flags>  (158) 
0

>  <s_epik_input>  (158) 
W0NIM11PW0NASF0oW0NIMl1bQ0gyXTEpW0NIMl1bQ0BIXTJbQ0gyXWMoYzNbQ0BIXTEyKVtjSF1bY0hdW2NIXVtjSF0z

>  <s_epik_cmdline>  (158) 
J2VwaWtfcHl0aG9uJywgJy1waHQnLCAnMi4wJywgJy1waCcsICc3LjAnLCAnLXRuJywgJzgnLCAnLW1hJywgJzIwMCcsICctaW1hZScsICc8aW5maWxlLm1hZT4nLCAnLW9tYWUnLCAnPG91dGZpbGUubWFlPic=

>  <r_lp_tautomer_probability>  (158) 
1

>  <r_epik_Ionization_Penalty>  (158) 
3.05789e-11

>  <r_epik_Ionization_Penalty_Charging>  (158) 
0

>  <r_epik_Ionization_Penalty_Neutral>  (158) 
3.05789e-11

>  <r_epik_State_Penalty>  (158) 
-0

>  <r_epik_Charging_Adjusted_Penalty>  (158) 
0

>  <i_epik_Tot_Q>  (158) 
0

>  <i_epik_Tot_abs_Q>  (158) 
0

>  <s_lp_Force_Field>  (158) 
OPLS3e

>  <r_lp_Energy>  (158) 
26.1761

>  <b_lp_Chiralities_Consistent>  (158) 
1

>  <s_lp_Variant>  (158) 
53:0-1

>  <s_i_glide_gridfile>  (158) 
pfpi4k_grid

>  <i_i_glide_lignum>  (158) 
34

>  <i_i_glide_rotatable_bonds>  (158) 
1

>  <r_i_docking_score>  (158) 
-3.41129

>  <r_i_glide_ligand_efficiency>  (158) 
-0.227419

>  <r_i_glide_ligand_efficiency_sa>  (158) 
-0.560864

>  <r_i_glide_ligand_efficiency_ln>  (158) 
-0.919969

>  <r_i_glide_gscore>  (158) 
-3.41129

>  <r_i_glide_lipo>  (158) 
-0.745631

>  <r_i_glide_hbond>  (158) 
0

>  <r_i_glide_metal>  (158) 
-0

>  <r_i_glide_rewards>  (158) 
-2.02983

>  <r_i_glide_evdw>  (158) 
-9.59296

>  <r_i_glide_ecoul>  (158) 
-1.04123

>  <r_i_glide_erotb>  (158) 
0

>  <r_i_glide_esite>  (158) 
0

>  <r_i_glide_emodel>  (158) 
-12.6578

>  <r_i_glide_energy>  (158) 
-10.6342

>  <r_i_glide_einternal>  (158) 
0.000477221

>  <r_i_glide_intrahb_reward>  (158) 
-0

>  <i_i_glide_confnum>  (158) 
1

>  <i_i_glide_posenum>  (158) 
2

>  <r_i_glide_eff_state_penalty>  (158) 
0

>  <ligand_id>  (158) 
53

>  <original_smiles>  (158) 
COC1CCC2c3ccccc3CC2C1

>  <smiles>  (158) 
[H]c1c([H])c([H])c2c(c1[H])C([H])([H])C1([H])C([H])([H])C([H])(OC([H])([H])[H])C([H])([H])C([H])([H])C21[H]

$$$$
53:0:1
     RDKit          3D

 33 35  0  0  1  0  0  0  0  0999 V2000
    4.6718   -5.5794    4.0375 C   0  0  0  0  0  0  0  0  0  0  0  0
    3.5970   -5.0812    3.2517 O   0  0  0  0  0  0  0  0  0  0  0  0
    3.9761   -4.6008    1.9650 C   0  0  2  0  0  0  0  0  0  0  0  0
    4.7571   -3.2575    2.0595 C   0  0  0  0  0  0  0  0  0  0  0  0
    5.0352   -2.6147    0.6762 C   0  0  0  0  0  0  0  0  0  0  0  0
    3.7109   -2.5131   -0.0849 C   0  0  1  0  0  0  0  0  0  0  0  0
    3.6864   -2.0026   -1.4962 C   0  0  0  0  0  0  0  0  0  0  0  0
    4.4061   -0.9367   -2.0593 C   0  0  0  0  0  0  0  0  0  0  0  0
    4.0945   -0.5660   -3.3825 C   0  0  0  0  0  0  0  0  0  0  0  0
    3.0906   -1.2385   -4.1129 C   0  0  0  0  0  0  0  0  0  0  0  0
    2.3965   -2.3232   -3.5397 C   0  0  0  0  0  0  0  0  0  0  0  0
    2.7029   -2.6707   -2.2191 C   0  0  0  0  0  0  0  0  0  0  0  0
    2.0289   -3.7234   -1.3777 C   0  0  0  0  0  0  0  0  0  0  0  0
    3.0690   -3.8988   -0.2470 C   0  0  2  0  0  0  0  0  0  0  0  0
    2.6816   -4.4626    1.1222 C   0  0  0  0  0  0  0  0  0  0  0  0
    4.2766   -6.0412    4.9431 H   0  0  0  0  0  0  0  0  0  0  0  0
    5.3450   -4.7803    4.3477 H   0  0  0  0  0  0  0  0  0  0  0  0
    5.2483   -6.3381    3.5055 H   0  0  0  0  0  0  0  0  0  0  0  0
    4.6063   -5.3499    1.4790 H   0  0  0  0  0  0  0  0  0  0  0  0
    4.1787   -2.5662    2.6746 H   0  0  0  0  0  0  0  0  0  0  0  0
    5.7007   -3.4075    2.5823 H   0  0  0  0  0  0  0  0  0  0  0  0
    5.4847   -1.6284    0.8011 H   0  0  0  0  0  0  0  0  0  0  0  0
    5.7514   -3.2149    0.1138 H   0  0  0  0  0  0  0  0  0  0  0  0
    3.0328   -1.8620    0.4738 H   0  0  0  0  0  0  0  0  0  0  0  0
    5.1390   -0.3909   -1.4815 H   0  0  0  0  0  0  0  0  0  0  0  0
    4.5895    0.2752   -3.8398 H   0  0  0  0  0  0  0  0  0  0  0  0
    2.8369   -0.9014   -5.1077 H   0  0  0  0  0  0  0  0  0  0  0  0
    1.5971   -2.8268   -4.0663 H   0  0  0  0  0  0  0  0  0  0  0  0
    1.0924   -3.3036   -1.0263 H   0  0  0  0  0  0  0  0  0  0  0  0
    1.7852   -4.6335   -1.9165 H   0  0  0  0  0  0  0  0  0  0  0  0
    3.8308   -4.5599   -0.6705 H   0  0  0  0  0  0  0  0  0  0  0  0
    2.1978   -5.4360    1.0155 H   0  0  0  0  0  0  0  0  0  0  0  0
    1.9764   -3.8047    1.6333 H   0  0  0  0  0  0  0  0  0  0  0  0
  1  2  1  0
  1 16  1  0
  1 17  1  0
  1 18  1  0
  2  3  1  0
  3 15  1  0
  3  4  1  0
  3 19  1  6
  4  5  1  0
  4 20  1  0
  4 21  1  0
  5  6  1  0
  5 22  1  0
  5 23  1  0
  6 14  1  0
  6  7  1  0
  6 24  1  1
  7 12  2  0
  7  8  1  0
  8  9  2  0
  8 25  1  0
  9 10  1  0
  9 26  1  0
 10 11  2  0
 10 27  1  0
 11 12  1  0
 11 28  1  0
 12 13  1  0
 13 14  1  0
 13 29  1  0
 13 30  1  0
 14 15  1  0
 14 31  1  6
 15 32  1  0
 15 33  1  0
M  END
>  <i_m_ct_stereo_status>  (159) 
1

>  <s_m_source_file>  (159) 
/var/tmp/pbs.5076255.sched01/tmpmmp70uc3/38qnywpnyg.sdf

>  <i_m_source_file_index>  (159) 
34

>  <i_lp_mmshare_version>  (159) 
48012

>  <i_f3d_flags>  (159) 
0

>  <s_epik_input>  (159) 
W0NIM11PW0NASF0oW0NIMl1bQ0gyXTEpW0NIMl1bQ0BIXTJbQ0gyXWMoYzNbQ0BIXTEyKVtjSF1bY0hdW2NIXVtjSF0z

>  <s_epik_cmdline>  (159) 
J2VwaWtfcHl0aG9uJywgJy1waHQnLCAnMi4wJywgJy1waCcsICc3LjAnLCAnLXRuJywgJzgnLCAnLW1hJywgJzIwMCcsICctaW1hZScsICc8aW5maWxlLm1hZT4nLCAnLW9tYWUnLCAnPG91dGZpbGUubWFlPic=

>  <r_lp_tautomer_probability>  (159) 
1

>  <r_epik_Ionization_Penalty>  (159) 
3.05789e-11

>  <r_epik_Ionization_Penalty_Charging>  (159) 
0

>  <r_epik_Ionization_Penalty_Neutral>  (159) 
3.05789e-11

>  <r_epik_State_Penalty>  (159) 
-0

>  <r_epik_Charging_Adjusted_Penalty>  (159) 
0

>  <i_epik_Tot_Q>  (159) 
0

>  <i_epik_Tot_abs_Q>  (159) 
0

>  <s_lp_Force_Field>  (159) 
OPLS3e

>  <r_lp_Energy>  (159) 
26.1761

>  <b_lp_Chiralities_Consistent>  (159) 
1

>  <s_lp_Variant>  (159) 
53:0-1

>  <s_i_glide_gridfile>  (159) 
pfpi4k_grid

>  <i_i_glide_lignum>  (159) 
34

>  <i_i_glide_rotatable_bonds>  (159) 
1

>  <r_i_docking_score>  (159) 
-3.35255

>  <r_i_glide_ligand_efficiency>  (159) 
-0.223503

>  <r_i_glide_ligand_efficiency_sa>  (159) 
-0.551207

>  <r_i_glide_ligand_efficiency_ln>  (159) 
-0.904127

>  <r_i_glide_gscore>  (159) 
-3.35255

>  <r_i_glide_lipo>  (159) 
-0.611145

>  <r_i_glide_hbond>  (159) 
0

>  <r_i_glide_metal>  (159) 
-0

>  <r_i_glide_rewards>  (159) 
-2.02983

>  <r_i_glide_evdw>  (159) 
-12.718

>  <r_i_glide_ecoul>  (159) 
-0.504539

>  <r_i_glide_erotb>  (159) 
0

>  <r_i_glide_esite>  (159) 
0

>  <r_i_glide_emodel>  (159) 
-15.3283

>  <r_i_glide_energy>  (159) 
-13.2225

>  <r_i_glide_einternal>  (159) 
0.000689103

>  <r_i_glide_intrahb_reward>  (159) 
-0

>  <i_i_glide_confnum>  (159) 
1

>  <i_i_glide_posenum>  (159) 
37

>  <r_i_glide_eff_state_penalty>  (159) 
0

>  <ligand_id>  (159) 
53

>  <original_smiles>  (159) 
COC1CCC2c3ccccc3CC2C1

>  <smiles>  (159) 
[H]c1c([H])c([H])c2c(c1[H])C([H])([H])C1([H])C([H])([H])C([H])(OC([H])([H])[H])C([H])([H])C([H])([H])C21[H]

$$$$
53:0:2
     RDKit          3D

 33 35  0  0  1  0  0  0  0  0999 V2000
    6.9268   -6.3995    1.6868 C   0  0  0  0  0  0  0  0  0  0  0  0
    6.1617   -5.2139    1.9006 O   0  0  0  0  0  0  0  0  0  0  0  0
    6.1515   -4.3363    0.7839 C   0  0  2  0  0  0  0  0  0  0  0  0
    5.9551   -2.8728    1.2807 C   0  0  0  0  0  0  0  0  0  0  0  0
    5.8255   -1.8350    0.1270 C   0  0  0  0  0  0  0  0  0  0  0  0
    4.7259   -2.3261   -0.8161 C   0  0  1  0  0  0  0  0  0  0  0  0
    4.3903   -1.6169   -2.0912 C   0  0  0  0  0  0  0  0  0  0  0  0
    4.3441   -0.2682   -2.3453 C   0  0  0  0  0  0  0  0  0  0  0  0
    3.8929    0.2096   -3.5944 C   0  0  0  0  0  0  0  0  0  0  0  0
    3.4960   -0.6946   -4.6015 C   0  0  0  0  0  0  0  0  0  0  0  0
    3.5396   -2.0818   -4.3207 C   0  0  0  0  0  0  0  0  0  0  0  0
    4.0096   -2.5026   -3.0721 C   0  0  0  0  0  0  0  0  0  0  0  0
    4.1743   -3.8822   -2.5793 C   0  0  0  0  0  0  0  0  0  0  0  0
    5.0762   -3.7175   -1.3489 C   0  0  2  0  0  0  0  0  0  0  0  0
    5.0533   -4.7529   -0.2206 C   0  0  0  0  0  0  0  0  0  0  0  0
    6.8069   -7.0921    2.5222 H   0  0  0  0  0  0  0  0  0  0  0  0
    7.9905   -6.1673    1.5996 H   0  0  0  0  0  0  0  0  0  0  0  0
    6.6301   -6.9371    0.7857 H   0  0  0  0  0  0  0  0  0  0  0  0
    7.1244   -4.3670    0.2898 H   0  0  0  0  0  0  0  0  0  0  0  0
    5.0689   -2.8244    1.9183 H   0  0  0  0  0  0  0  0  0  0  0  0
    6.7845   -2.5951    1.9297 H   0  0  0  0  0  0  0  0  0  0  0  0
    5.5820   -0.8501    0.5260 H   0  0  0  0  0  0  0  0  0  0  0  0
    6.7731   -1.7420   -0.4006 H   0  0  0  0  0  0  0  0  0  0  0  0
    3.7863   -2.3679   -0.2627 H   0  0  0  0  0  0  0  0  0  0  0  0
    4.6162    0.3669   -1.5464 H   0  0  0  0  0  0  0  0  0  0  0  0
    3.8497    1.2796   -3.7690 H   0  0  0  0  0  0  0  0  0  0  0  0
    3.1565   -0.2988   -5.5523 H   0  0  0  0  0  0  0  0  0  0  0  0
    3.2292   -2.8017   -5.0555 H   0  0  0  0  0  0  0  0  0  0  0  0
    3.1841   -4.1680   -2.2354 H   0  0  0  0  0  0  0  0  0  0  0  0
    4.5881   -4.5597   -3.3322 H   0  0  0  0  0  0  0  0  0  0  0  0
    6.0921   -3.6741   -1.7526 H   0  0  0  0  0  0  0  0  0  0  0  0
    5.2303   -5.7492   -0.6261 H   0  0  0  0  0  0  0  0  0  0  0  0
    4.0772   -4.7706    0.2633 H   0  0  0  0  0  0  0  0  0  0  0  0
  1  2  1  0
  1 16  1  0
  1 17  1  0
  1 18  1  0
  2  3  1  0
  3 15  1  0
  3  4  1  0
  3 19  1  6
  4  5  1  0
  4 20  1  0
  4 21  1  0
  5  6  1  0
  5 22  1  0
  5 23  1  0
  6 14  1  0
  6  7  1  0
  6 24  1  1
  7 12  2  0
  7  8  1  0
  8  9  2  0
  8 25  1  0
  9 10  1  0
  9 26  1  0
 10 11  2  0
 10 27  1  0
 11 12  1  0
 11 28  1  0
 12 13  1  0
 13 14  1  0
 13 29  1  0
 13 30  1  0
 14 15  1  0
 14 31  1  6
 15 32  1  0
 15 33  1  0
M  END
>  <i_m_ct_stereo_status>  (160) 
1

>  <s_m_source_file>  (160) 
/var/tmp/pbs.5076255.sched01/tmpmmp70uc3/38qnywpnyg.sdf

>  <i_m_source_file_index>  (160) 
34

>  <i_lp_mmshare_version>  (160) 
48012

>  <i_f3d_flags>  (160) 
0

>  <s_epik_input>  (160) 
W0NIM11PW0NASF0oW0NIMl1bQ0gyXTEpW0NIMl1bQ0BIXTJbQ0gyXWMoYzNbQ0BIXTEyKVtjSF1bY0hdW2NIXVtjSF0z

>  <s_epik_cmdline>  (160) 
J2VwaWtfcHl0aG9uJywgJy1waHQnLCAnMi4wJywgJy1waCcsICc3LjAnLCAnLXRuJywgJzgnLCAnLW1hJywgJzIwMCcsICctaW1hZScsICc8aW5maWxlLm1hZT4nLCAnLW9tYWUnLCAnPG91dGZpbGUubWFlPic=

>  <r_lp_tautomer_probability>  (160) 
1

>  <r_epik_Ionization_Penalty>  (160) 
3.05789e-11

>  <r_epik_Ionization_Penalty_Charging>  (160) 
0

>  <r_epik_Ionization_Penalty_Neutral>  (160) 
3.05789e-11

>  <r_epik_State_Penalty>  (160) 
-0

>  <r_epik_Charging_Adjusted_Penalty>  (160) 
0

>  <i_epik_Tot_Q>  (160) 
0

>  <i_epik_Tot_abs_Q>  (160) 
0

>  <s_lp_Force_Field>  (160) 
OPLS3e

>  <r_lp_Energy>  (160) 
26.1761

>  <b_lp_Chiralities_Consistent>  (160) 
1

>  <s_lp_Variant>  (160) 
53:0-1

>  <s_i_glide_gridfile>  (160) 
pfpi4k_grid

>  <i_i_glide_lignum>  (160) 
34

>  <i_i_glide_rotatable_bonds>  (160) 
1

>  <r_i_docking_score>  (160) 
-3.23883

>  <r_i_glide_ligand_efficiency>  (160) 
-0.215922

>  <r_i_glide_ligand_efficiency_sa>  (160) 
-0.532509

>  <r_i_glide_ligand_efficiency_ln>  (160) 
-0.873458

>  <r_i_glide_gscore>  (160) 
-3.23883

>  <r_i_glide_lipo>  (160) 
-0.681924

>  <r_i_glide_hbond>  (160) 
0

>  <r_i_glide_metal>  (160) 
-0

>  <r_i_glide_rewards>  (160) 
-2.02983

>  <r_i_glide_evdw>  (160) 
-6.16818

>  <r_i_glide_ecoul>  (160) 
-1.45778

>  <r_i_glide_erotb>  (160) 
0

>  <r_i_glide_esite>  (160) 
0

>  <r_i_glide_emodel>  (160) 
-8.78008

>  <r_i_glide_energy>  (160) 
-7.62596

>  <r_i_glide_einternal>  (160) 
0.80551

>  <r_i_glide_intrahb_reward>  (160) 
-0

>  <i_i_glide_confnum>  (160) 
2

>  <i_i_glide_posenum>  (160) 
25

>  <r_i_glide_eff_state_penalty>  (160) 
0

>  <ligand_id>  (160) 
53

>  <original_smiles>  (160) 
COC1CCC2c3ccccc3CC2C1

>  <smiles>  (160) 
[H]c1c([H])c([H])c2c(c1[H])C([H])([H])C1([H])C([H])([H])C([H])(OC([H])([H])[H])C([H])([H])C([H])([H])C21[H]

$$$$
54:0:0
     RDKit          3D

 27 29  0  0  1  0  0  0  0  0999 V2000
    0.7876   -7.8184    2.0999 C   0  0  0  0  0  0  0  0  0  0  0  0
    1.3260   -6.6429    1.5252 O   0  0  0  0  0  0  0  0  0  0  0  0
    2.1621   -5.8671    2.2389 C   0  0  0  0  0  0  0  0  0  0  0  0
    2.4501   -6.0999    3.4134 O   0  0  0  0  0  0  0  0  0  0  0  0
    2.6352   -4.7204    1.4725 C   0  0  0  0  0  0  0  0  0  0  0  0
    2.5711   -4.5885    0.1027 C   0  0  0  0  0  0  0  0  0  0  0  0
    3.0770   -3.3277   -0.1689 N   0  0  0  0  0  0  0  0  0  0  0  0
    3.4263   -2.7573    0.9900 C   0  0  0  0  0  0  0  0  0  0  0  0
    3.1869   -3.5573    2.0252 N   0  0  0  0  0  0  0  0  0  0  0  0
    3.9730   -1.3594    1.0705 C   0  0  0  0  0  0  0  0  0  0  0  0
    4.6908   -1.0383   -0.1263 O   0  0  0  0  0  0  0  0  0  0  0  0
    4.1156   -1.4505   -1.3079 C   0  0  0  0  0  0  0  0  0  0  0  0
    4.3754   -0.7251   -2.4833 C   0  0  0  0  0  0  0  0  0  0  0  0
    3.8152   -1.1259   -3.7099 C   0  0  0  0  0  0  0  0  0  0  0  0
    3.0130   -2.2821   -3.7682 C   0  0  0  0  0  0  0  0  0  0  0  0
    2.7479   -3.0170   -2.5954 C   0  0  0  0  0  0  0  0  0  0  0  0
    3.2932   -2.5979   -1.3622 C   0  0  0  0  0  0  0  0  0  0  0  0
    0.1450   -8.2977    1.3651 H   0  0  0  0  0  0  0  0  0  0  0  0
    0.1843   -7.5948    2.9810 H   0  0  0  0  0  0  0  0  0  0  0  0
    1.5778   -8.5177    2.3785 H   0  0  0  0  0  0  0  0  0  0  0  0
    2.2131   -5.2698   -0.6614 H   0  0  0  0  0  0  0  0  0  0  0  0
    3.1507   -0.6572    1.2102 H   0  0  0  0  0  0  0  0  0  0  0  0
    4.6451   -1.2805    1.9253 H   0  0  0  0  0  0  0  0  0  0  0  0
    5.0023    0.1481   -2.4262 H   0  0  0  0  0  0  0  0  0  0  0  0
    4.0064   -0.5473   -4.6009 H   0  0  0  0  0  0  0  0  0  0  0  0
    2.5904   -2.6022   -4.7086 H   0  0  0  0  0  0  0  0  0  0  0  0
    2.1211   -3.8953   -2.6512 H   0  0  0  0  0  0  0  0  0  0  0  0
  1  2  1  0
  1 18  1  0
  1 19  1  0
  1 20  1  0
  2  3  1  0
  3  4  2  0
  3  5  1  0
  5  9  1  0
  5  6  2  0
  6  7  1  0
  6 21  1  0
  7 17  1  0
  7  8  1  0
  8  9  2  0
  8 10  1  0
 10 11  1  0
 10 22  1  0
 10 23  1  0
 11 12  1  0
 12 17  2  0
 12 13  1  0
 13 14  2  0
 13 24  1  0
 14 15  1  0
 14 25  1  0
 15 16  2  0
 15 26  1  0
 16 17  1  0
 16 27  1  0
M  END
>  <i_m_ct_stereo_status>  (161) 
1

>  <s_m_source_file>  (161) 
/var/tmp/pbs.5076255.sched01/tmpmmp70uc3/38qnywpnyg.sdf

>  <i_m_source_file_index>  (161) 
35

>  <i_lp_mmshare_version>  (161) 
48012

>  <i_f3d_flags>  (161) 
0

>  <s_epik_input>  (161) 
W0NIM11PQyg9TyljKFtjSF0xKW5jKG4xMilbQ0gyXU9jM2MyW2NIXVtjSF1bY0hdW2NIXTM=

>  <s_epik_cmdline>  (161) 
J2VwaWtfcHl0aG9uJywgJy1waHQnLCAnMi4wJywgJy1waCcsICc3LjAnLCAnLXRuJywgJzgnLCAnLW1hJywgJzIwMCcsICctaW1hZScsICc8aW5maWxlLm1hZT4nLCAnLW9tYWUnLCAnPG91dGZpbGUubWFlPic=

>  <r_lp_tautomer_probability>  (161) 
1

>  <r_epik_Ionization_Penalty>  (161) 
0.00020174

>  <r_epik_Ionization_Penalty_Charging>  (161) 
0.00020174

>  <r_epik_Ionization_Penalty_Neutral>  (161) 
1.7984e-13

>  <r_epik_State_Penalty>  (161) 
-0

>  <r_epik_Charging_Adjusted_Penalty>  (161) 
0.00020174

>  <i_epik_Tot_Q>  (161) 
0

>  <i_epik_Tot_abs_Q>  (161) 
0

>  <s_epik_Chemistry_Notes>  (161) 
This compound has an ester and may undergo hydrolysis at high or low pH.

>  <s_lp_Force_Field>  (161) 
OPLS3e

>  <r_lp_Energy>  (161) 
25.5182

>  <b_lp_Chiralities_Consistent>  (161) 
1

>  <s_lp_Variant>  (161) 
54:0-1

>  <s_i_glide_gridfile>  (161) 
pfpi4k_grid

>  <i_i_glide_lignum>  (161) 
35

>  <i_i_glide_rotatable_bonds>  (161) 
2

>  <r_i_docking_score>  (161) 
-3.87894

>  <r_i_glide_ligand_efficiency>  (161) 
-0.228173

>  <r_i_glide_ligand_efficiency_sa>  (161) 
-0.586697

>  <r_i_glide_ligand_efficiency_ln>  (161) 
-1.01193

>  <r_i_glide_gscore>  (161) 
-3.87894

>  <r_i_glide_lipo>  (161) 
-0.402494

>  <r_i_glide_hbond>  (161) 
0

>  <r_i_glide_metal>  (161) 
-0

>  <r_i_glide_rewards>  (161) 
-1.85735

>  <r_i_glide_evdw>  (161) 
-22.9016

>  <r_i_glide_ecoul>  (161) 
-2.96817

>  <r_i_glide_erotb>  (161) 
0

>  <r_i_glide_esite>  (161) 
-0.0287931

>  <r_i_glide_emodel>  (161) 
-32.2603

>  <r_i_glide_energy>  (161) 
-25.8698

>  <r_i_glide_einternal>  (161) 
0.572058

>  <r_i_glide_intrahb_reward>  (161) 
-0

>  <i_i_glide_confnum>  (161) 
1

>  <i_i_glide_posenum>  (161) 
32

>  <r_i_glide_eff_state_penalty>  (161) 
0

>  <ligand_id>  (161) 
54

>  <original_smiles>  (161) 
COC(=O)c1cn2c(n1)COc1ccccc1-2

>  <smiles>  (161) 
[H]c1c([H])c([H])c2c(c1[H])OC([H])([H])c1nc(C(=O)OC([H])([H])[H])c([H])n1-2

$$$$
55:0:0
     RDKit          3D

 49 52  0  0  1  0  0  0  0  0999 V2000
    2.0459    2.4432    4.3446 C   0  0  0  0  0  0  0  0  0  0  0  0
    2.3478    1.5637    3.2603 N   0  0  0  0  0  0  0  0  0  0  0  0
    3.4268    0.7279    3.0812 C   0  0  0  0  0  0  0  0  0  0  0  0
    3.2724    0.0928    1.9004 C   0  0  0  0  0  0  0  0  0  0  0  0
    4.0922   -1.0614    1.3257 C   0  0  2  0  0  0  0  0  0  0  0  0
    4.1283   -0.9081   -0.1758 C   0  0  0  0  0  0  0  0  0  0  0  0
    3.0902   -1.8465   -0.6830 N   0  0  1  0  0  0  0  0  0  0  0  0
    3.1561   -2.1380   -2.1318 C   0  0  0  0  0  0  0  0  0  0  0  0
    4.3638   -3.0318   -2.5142 C   0  0  0  0  0  0  0  0  0  0  0  0
    4.5122   -3.1160   -4.0156 C   0  0  0  0  0  0  0  0  0  0  0  0
    4.5788   -1.7553   -4.4595 O   0  0  0  0  0  0  0  0  0  0  0  0
    3.3981   -1.0605   -4.3928 C   0  0  0  0  0  0  0  0  0  0  0  0
    3.1827   -0.7971   -2.9270 C   0  0  0  0  0  0  0  0  0  0  0  0
    3.1695   -3.0289    0.1830 C   0  0  0  0  0  0  0  0  0  0  0  0
    3.4333   -2.4588    1.5808 C   0  0  1  0  0  0  0  0  0  0  0  0
    4.3356   -3.4115    2.3888 C   0  0  0  0  0  0  0  0  0  0  0  0
    3.3655   -4.4018    3.0737 C   0  0  0  0  0  0  0  0  0  0  0  0
    2.0317   -3.6504    3.2392 C   0  0  0  0  0  0  0  0  0  0  0  0
    1.0100   -4.4306    2.8570 F   0  0  0  0  0  0  0  0  0  0  0  0
    1.8912   -3.2840    4.5262 F   0  0  0  0  0  0  0  0  0  0  0  0
    2.1135   -2.3772    2.3960 C   0  0  0  0  0  0  0  0  0  0  0  0
    2.0090    0.5569    1.4659 C   0  0  0  0  0  0  0  0  0  0  0  0
    1.4472    1.4426    2.2701 N   0  0  0  0  0  0  0  0  0  0  0  0
    2.7719    2.2663    5.1423 H   0  0  0  0  0  0  0  0  0  0  0  0
    1.0319    2.2561    4.7077 H   0  0  0  0  0  0  0  0  0  0  0  0
    2.1351    3.4589    3.9718 H   0  0  0  0  0  0  0  0  0  0  0  0
    4.2474    0.6854    3.7877 H   0  0  0  0  0  0  0  0  0  0  0  0
    5.1417   -0.9734    1.6260 H   0  0  0  0  0  0  0  0  0  0  0  0
    4.0294    0.1343   -0.4583 H   0  0  0  0  0  0  0  0  0  0  0  0
    5.1210   -1.2109   -0.5304 H   0  0  0  0  0  0  0  0  0  0  0  0
    2.2463   -2.6867   -2.4327 H   0  0  0  0  0  0  0  0  0  0  0  0
    5.3134   -2.5976   -2.1751 H   0  0  0  0  0  0  0  0  0  0  0  0
    4.2810   -4.0665   -2.1621 H   0  0  0  0  0  0  0  0  0  0  0  0
    5.4382   -3.6581   -4.2068 H   0  0  0  0  0  0  0  0  0  0  0  0
    3.6930   -3.7000   -4.4614 H   0  0  0  0  0  0  0  0  0  0  0  0
    3.4651   -0.1264   -4.9755 H   0  0  0  0  0  0  0  0  0  0  0  0
    2.5309   -1.6690   -4.6862 H   0  0  0  0  0  0  0  0  0  0  0  0
    2.2471   -0.2374   -2.7787 H   0  0  0  0  0  0  0  0  0  0  0  0
    3.9947   -0.1304   -2.6663 H   0  0  0  0  0  0  0  0  0  0  0  0
    2.3142   -3.6955    0.1491 H   0  0  0  0  0  0  0  0  0  0  0  0
    4.0324   -3.6258   -0.0764 H   0  0  0  0  0  0  0  0  0  0  0  0
    5.0022   -3.9770    1.7501 H   0  0  0  0  0  0  0  0  0  0  0  0
    4.9384   -2.8967    3.1422 H   0  0  0  0  0  0  0  0  0  0  0  0
    3.2356   -5.2616    2.3999 H   0  0  0  0  0  0  0  0  0  0  0  0
    3.7833   -4.7406    4.0312 H   0  0  0  0  0  0  0  0  0  0  0  0
    2.1069   -1.5842    3.1349 H   0  0  0  0  0  0  0  0  0  0  0  0
    1.2464   -2.2391    1.7402 H   0  0  0  0  0  0  0  0  0  0  0  0
    1.4450    0.3286    0.5731 H   0  0  0  0  0  0  0  0  0  0  0  0
    2.1324   -1.4788   -0.5845 H   0  0  0  0  0  0  0  0  0  0  0  0
  1  2  1  0
  1 24  1  0
  1 25  1  0
  1 26  1  0
  2 23  1  0
  2  3  1  0
  3  4  2  0
  3 27  1  0
  4  5  1  0
  4 22  1  0
  5 15  1  0
  5  6  1  0
  5 28  1  1
  6  7  1  0
  6 29  1  0
  6 30  1  0
  7  8  1  0
  7 14  1  0
  7 49  1  6
  8 13  1  0
  8  9  1  0
  8 31  1  0
  9 10  1  0
  9 32  1  0
  9 33  1  0
 10 11  1  0
 10 34  1  0
 10 35  1  0
 11 12  1  0
 12 13  1  0
 12 36  1  0
 12 37  1  0
 13 38  1  0
 13 39  1  0
 15 14  1  6
 14 40  1  0
 14 41  1  0
 15 21  1  0
 15 16  1  0
 16 17  1  0
 16 42  1  0
 16 43  1  0
 17 18  1  0
 17 44  1  0
 17 45  1  0
 18 19  1  0
 18 20  1  0
 18 21  1  0
 21 46  1  0
 21 47  1  0
 22 23  2  0
 22 48  1  0
M  CHG  1   7   1
M  END
>  <i_m_ct_stereo_status>  (162) 
1

>  <s_m_source_file>  (162) 
/var/tmp/pbs.5076255.sched01/tmpmmp70uc3/38qnywpnyg.sdf

>  <i_m_source_file_index>  (162) 
36

>  <i_lp_mmshare_version>  (162) 
48012

>  <i_f3d_flags>  (162) 
0

>  <s_epik_input>  (162) 
RkMoRikoW0NIMl0xKVtDSDJdW0NIMl1bQ0BdMTJbQ0BIXShjKFtjSF1uMylbY0hdbjNbQ0gzXSlbQ0gyXU4oW0NIMl0yKVtDSF00W0NIMl1bQ0gyXU9bQ0gyXVtDSDJdNA==

>  <s_epik_cmdline>  (162) 
J2VwaWtfcHl0aG9uJywgJy1waHQnLCAnMi4wJywgJy1waCcsICc3LjAnLCAnLXRuJywgJzgnLCAnLW1hJywgJzIwMCcsICctaW1hZScsICc8aW5maWxlLm1hZT4nLCAnLW9tYWUnLCAnPG91dGZpbGUubWFlPic=

>  <r_lp_tautomer_probability>  (162) 
1

>  <r_epik_Ionization_Penalty>  (162) 
0.00716028

>  <r_epik_Ionization_Penalty_Charging>  (162) 
0.00714592

>  <r_epik_Ionization_Penalty_Neutral>  (162) 
1.4359e-05

>  <r_epik_State_Penalty>  (162) 
0.00532355

>  <r_epik_Charging_Adjusted_Penalty>  (162) 
0.0124695

>  <i_epik_Tot_Q>  (162) 
1

>  <i_epik_Tot_abs_Q>  (162) 
1

>  <s_lp_Force_Field>  (162) 
OPLS3e

>  <r_lp_Energy>  (162) 
20.3563

>  <b_lp_Chiralities_Consistent>  (162) 
1

>  <s_lp_Variant>  (162) 
55:0-1

>  <s_i_glide_gridfile>  (162) 
pfpi4k_grid

>  <i_i_glide_lignum>  (162) 
36

>  <i_i_glide_rotatable_bonds>  (162) 
2

>  <r_i_docking_score>  (162) 
-3.26172

>  <r_i_glide_ligand_efficiency>  (162) 
-0.141814

>  <r_i_glide_ligand_efficiency_sa>  (162) 
-0.4033

>  <r_i_glide_ligand_efficiency_ln>  (162) 
-0.788714

>  <r_i_glide_gscore>  (162) 
-3.26172

>  <r_i_glide_lipo>  (162) 
-0.138234

>  <r_i_glide_hbond>  (162) 
-0.505761

>  <r_i_glide_metal>  (162) 
-0

>  <r_i_glide_rewards>  (162) 
-1.18973

>  <r_i_glide_evdw>  (162) 
-11.6418

>  <r_i_glide_ecoul>  (162) 
-9.80749

>  <r_i_glide_erotb>  (162) 
0.352061

>  <r_i_glide_esite>  (162) 
-0.120883

>  <r_i_glide_emodel>  (162) 
-13.3282

>  <r_i_glide_energy>  (162) 
-21.4493

>  <r_i_glide_einternal>  (162) 
12.6229

>  <r_i_glide_intrahb_reward>  (162) 
-0

>  <i_i_glide_confnum>  (162) 
5

>  <i_i_glide_posenum>  (162) 
30

>  <r_i_glide_eff_state_penalty>  (162) 
0

>  <ligand_id>  (162) 
55

>  <original_smiles>  (162) 
Cn1cc(C2CN(C3CCOCC3)CC23CCC(F)(F)C3)cn1

>  <smiles>  (162) 
[H]c1nn(C([H])([H])[H])c([H])c1C1([H])C2(C([H])([H])C([H])([H])C(F)(F)C2([H])[H])C([H])([H])[N+]([H])(C2([H])C([H])([H])C([H])([H])OC([H])([H])C2([H])[H])C1([H])[H]

$$$$
55:0:1
     RDKit          3D

 49 52  0  0  1  0  0  0  0  0999 V2000
   -0.2615    2.5707    4.2086 C   0  0  0  0  0  0  0  0  0  0  0  0
    0.5336    1.7750    3.3248 N   0  0  0  0  0  0  0  0  0  0  0  0
    1.7923    1.2401    3.4938 C   0  0  0  0  0  0  0  0  0  0  0  0
    2.1265    0.5623    2.3387 C   0  0  0  0  0  0  0  0  0  0  0  0
    3.3315   -0.3596    2.0539 C   0  0  2  0  0  0  0  0  0  0  0  0
    3.7818   -0.2271    0.6027 C   0  0  0  0  0  0  0  0  0  0  0  0
    3.0959   -1.3178   -0.1377 N   0  0  1  0  0  0  0  0  0  0  0  0
    3.5996   -1.5840   -1.5117 C   0  0  0  0  0  0  0  0  0  0  0  0
    3.5001   -0.3551   -2.4052 C   0  0  0  0  0  0  0  0  0  0  0  0
    3.8279   -0.5717   -3.8536 C   0  0  0  0  0  0  0  0  0  0  0  0
    3.0246   -1.6380   -4.3351 O   0  0  0  0  0  0  0  0  0  0  0  0
    3.2596   -2.8670   -3.6621 C   0  0  0  0  0  0  0  0  0  0  0  0
    2.8344   -2.7370   -2.1951 C   0  0  0  0  0  0  0  0  0  0  0  0
    3.2290   -2.4522    0.7813 C   0  0  0  0  0  0  0  0  0  0  0  0
    2.9708   -1.8555    2.1662 C   0  0  1  0  0  0  0  0  0  0  0  0
    3.7605   -2.5964    3.2458 C   0  0  0  0  0  0  0  0  0  0  0  0
    2.8926   -3.7239    3.6965 C   0  0  0  0  0  0  0  0  0  0  0  0
    1.3922   -3.2983    3.4700 C   0  0  0  0  0  0  0  0  0  0  0  0
    0.7331   -4.3219    2.9115 F   0  0  0  0  0  0  0  0  0  0  0  0
    0.8219   -2.9700    4.6187 F   0  0  0  0  0  0  0  0  0  0  0  0
    1.4964   -2.0590    2.5842 C   0  0  0  0  0  0  0  0  0  0  0  0
    0.9577    0.8045    1.5433 C   0  0  0  0  0  0  0  0  0  0  0  0
   -0.0111    1.4437    2.1552 N   0  0  0  0  0  0  0  0  0  0  0  0
    0.2278    2.5737    5.1786 H   0  0  0  0  0  0  0  0  0  0  0  0
   -1.2732    2.1604    4.2876 H   0  0  0  0  0  0  0  0  0  0  0  0
   -0.2995    3.5772    3.7955 H   0  0  0  0  0  0  0  0  0  0  0  0
    2.3528    1.3789    4.3977 H   0  0  0  0  0  0  0  0  0  0  0  0
    4.1825   -0.0268    2.6583 H   0  0  0  0  0  0  0  0  0  0  0  0
    3.5954    0.7963    0.3037 H   0  0  0  0  0  0  0  0  0  0  0  0
    4.8696   -0.3644    0.4862 H   0  0  0  0  0  0  0  0  0  0  0  0
    4.6571   -1.8359   -1.4649 H   0  0  0  0  0  0  0  0  0  0  0  0
    2.4683   -0.0116   -2.4032 H   0  0  0  0  0  0  0  0  0  0  0  0
    4.2022    0.4096   -2.0628 H   0  0  0  0  0  0  0  0  0  0  0  0
    3.6201    0.3487   -4.4181 H   0  0  0  0  0  0  0  0  0  0  0  0
    4.8917   -0.7853   -3.9246 H   0  0  0  0  0  0  0  0  0  0  0  0
    2.6714   -3.6427   -4.1522 H   0  0  0  0  0  0  0  0  0  0  0  0
    4.3181   -3.1386   -3.7272 H   0  0  0  0  0  0  0  0  0  0  0  0
    3.0482   -3.6838   -1.6857 H   0  0  0  0  0  0  0  0  0  0  0  0
    1.7521   -2.5978   -2.1487 H   0  0  0  0  0  0  0  0  0  0  0  0
    2.5897   -3.3020    0.5609 H   0  0  0  0  0  0  0  0  0  0  0  0
    4.2617   -2.7990    0.6950 H   0  0  0  0  0  0  0  0  0  0  0  0
    4.7226   -2.9809    2.8457 H   0  0  0  0  0  0  0  0  0  0  0  0
    4.0290   -1.9122    4.0847 H   0  0  0  0  0  0  0  0  0  0  0  0
    3.0669   -4.6229    3.0646 H   0  0  0  0  0  0  0  0  0  0  0  0
    3.0426   -4.0244    4.7654 H   0  0  0  0  0  0  0  0  0  0  0  0
    1.1160   -1.2417    3.2224 H   0  0  0  0  0  0  0  0  0  0  0  0
    0.8519   -2.0634    1.7110 H   0  0  0  0  0  0  0  0  0  0  0  0
    0.7541    0.5146    0.5377 H   0  0  0  0  0  0  0  0  0  0  0  0
    2.0803   -1.1152   -0.2562 H   0  0  0  0  0  0  0  0  0  0  0  0
  1  2  1  0
  1 24  1  0
  1 25  1  0
  1 26  1  0
  2 23  1  0
  2  3  1  0
  3  4  2  0
  3 27  1  0
  4  5  1  0
  4 22  1  0
  5 15  1  0
  5  6  1  0
  5 28  1  1
  6  7  1  0
  6 29  1  0
  6 30  1  0
  7  8  1  0
  7 14  1  0
  7 49  1  6
  8 13  1  0
  8  9  1  0
  8 31  1  0
  9 10  1  0
  9 32  1  0
  9 33  1  0
 10 11  1  0
 10 34  1  0
 10 35  1  0
 11 12  1  0
 12 13  1  0
 12 36  1  0
 12 37  1  0
 13 38  1  0
 13 39  1  0
 15 14  1  6
 14 40  1  0
 14 41  1  0
 15 21  1  0
 15 16  1  0
 16 17  1  0
 16 42  1  0
 16 43  1  0
 17 18  1  0
 17 44  1  0
 17 45  1  0
 18 19  1  0
 18 20  1  0
 18 21  1  0
 21 46  1  0
 21 47  1  0
 22 23  2  0
 22 48  1  0
M  CHG  1   7   1
M  END
>  <i_m_ct_stereo_status>  (163) 
1

>  <s_m_source_file>  (163) 
/var/tmp/pbs.5076255.sched01/tmpmmp70uc3/38qnywpnyg.sdf

>  <i_m_source_file_index>  (163) 
36

>  <i_lp_mmshare_version>  (163) 
48012

>  <i_f3d_flags>  (163) 
0

>  <s_epik_input>  (163) 
RkMoRikoW0NIMl0xKVtDSDJdW0NIMl1bQ0BdMTJbQ0BIXShjKFtjSF1uMylbY0hdbjNbQ0gzXSlbQ0gyXU4oW0NIMl0yKVtDSF00W0NIMl1bQ0gyXU9bQ0gyXVtDSDJdNA==

>  <s_epik_cmdline>  (163) 
J2VwaWtfcHl0aG9uJywgJy1waHQnLCAnMi4wJywgJy1waCcsICc3LjAnLCAnLXRuJywgJzgnLCAnLW1hJywgJzIwMCcsICctaW1hZScsICc8aW5maWxlLm1hZT4nLCAnLW9tYWUnLCAnPG91dGZpbGUubWFlPic=

>  <r_lp_tautomer_probability>  (163) 
1

>  <r_epik_Ionization_Penalty>  (163) 
0.00716028

>  <r_epik_Ionization_Penalty_Charging>  (163) 
0.00714592

>  <r_epik_Ionization_Penalty_Neutral>  (163) 
1.4359e-05

>  <r_epik_State_Penalty>  (163) 
0.00532355

>  <r_epik_Charging_Adjusted_Penalty>  (163) 
0.0124695

>  <i_epik_Tot_Q>  (163) 
1

>  <i_epik_Tot_abs_Q>  (163) 
1

>  <s_lp_Force_Field>  (163) 
OPLS3e

>  <r_lp_Energy>  (163) 
20.3563

>  <b_lp_Chiralities_Consistent>  (163) 
1

>  <s_lp_Variant>  (163) 
55:0-1

>  <s_i_glide_gridfile>  (163) 
pfpi4k_grid

>  <i_i_glide_lignum>  (163) 
36

>  <i_i_glide_rotatable_bonds>  (163) 
2

>  <r_i_docking_score>  (163) 
-3.01188

>  <r_i_glide_ligand_efficiency>  (163) 
-0.130951

>  <r_i_glide_ligand_efficiency_sa>  (163) 
-0.372408

>  <r_i_glide_ligand_efficiency_ln>  (163) 
-0.728299

>  <r_i_glide_gscore>  (163) 
-3.01188

>  <r_i_glide_lipo>  (163) 
-0.512223

>  <r_i_glide_hbond>  (163) 
-0.284675

>  <r_i_glide_metal>  (163) 
-0

>  <r_i_glide_rewards>  (163) 
-1.20693

>  <r_i_glide_evdw>  (163) 
-4.00738

>  <r_i_glide_ecoul>  (163) 
-6.78467

>  <r_i_glide_erotb>  (163) 
0.352061

>  <r_i_glide_esite>  (163) 
-0.142035

>  <r_i_glide_emodel>  (163) 
-11.4411

>  <r_i_glide_energy>  (163) 
-10.7921

>  <r_i_glide_einternal>  (163) 
0.129148

>  <r_i_glide_intrahb_reward>  (163) 
-0

>  <i_i_glide_confnum>  (163) 
5

>  <i_i_glide_posenum>  (163) 
2

>  <r_i_glide_eff_state_penalty>  (163) 
0

>  <ligand_id>  (163) 
55

>  <original_smiles>  (163) 
Cn1cc(C2CN(C3CCOCC3)CC23CCC(F)(F)C3)cn1

>  <smiles>  (163) 
[H]c1nn(C([H])([H])[H])c([H])c1C1([H])C2(C([H])([H])C([H])([H])C(F)(F)C2([H])[H])C([H])([H])[N+]([H])(C2([H])C([H])([H])C([H])([H])OC([H])([H])C2([H])[H])C1([H])[H]

$$$$
55:0:2
     RDKit          3D

 49 52  0  0  1  0  0  0  0  0999 V2000
    1.7152    2.3424    4.3652 C   0  0  0  0  0  0  0  0  0  0  0  0
    2.0996    1.5292    3.2576 N   0  0  0  0  0  0  0  0  0  0  0  0
    3.2379    0.7719    3.0957 C   0  0  0  0  0  0  0  0  0  0  0  0
    3.1407    0.1375    1.8766 C   0  0  0  0  0  0  0  0  0  0  0  0
    4.0173   -0.9476    1.2831 C   0  0  2  0  0  0  0  0  0  0  0  0
    4.1051   -0.8279   -0.2156 C   0  0  0  0  0  0  0  0  0  0  0  0
    3.0812   -1.7773   -0.7608 N   0  0  1  0  0  0  0  0  0  0  0  0
    3.1563   -1.9917   -2.2168 C   0  0  0  0  0  0  0  0  0  0  0  0
    2.1960   -3.1260   -2.6734 C   0  0  0  0  0  0  0  0  0  0  0  0
    2.3818   -3.4350   -4.1635 C   0  0  0  0  0  0  0  0  0  0  0  0
    3.7147   -3.8428   -4.3208 O   0  0  0  0  0  0  0  0  0  0  0  0
    4.5988   -2.7790   -4.0767 C   0  0  0  0  0  0  0  0  0  0  0  0
    4.5888   -2.2983   -2.6687 C   0  0  0  0  0  0  0  0  0  0  0  0
    3.1940   -2.9526    0.0864 C   0  0  0  0  0  0  0  0  0  0  0  0
    3.4069   -2.3744    1.4862 C   0  0  1  0  0  0  0  0  0  0  0  0
    4.2925   -3.3402    2.2720 C   0  0  0  0  0  0  0  0  0  0  0  0
    3.3616   -4.3606    2.8909 C   0  0  0  0  0  0  0  0  0  0  0  0
    1.9965   -3.6703    3.0401 C   0  0  0  0  0  0  0  0  0  0  0  0
    1.0564   -4.4850    2.5772 F   0  0  0  0  0  0  0  0  0  0  0  0
    1.7582   -3.3379    4.3134 F   0  0  0  0  0  0  0  0  0  0  0  0
    2.0541   -2.3918    2.2289 C   0  0  0  0  0  0  0  0  0  0  0  0
    1.9057    0.6635    1.4035 C   0  0  0  0  0  0  0  0  0  0  0  0
    1.2428    1.4092    2.2400 N   0  0  0  0  0  0  0  0  0  0  0  0
    2.4025    2.1569    5.1837 H   0  0  0  0  0  0  0  0  0  0  0  0
    0.6853    2.1206    4.6684 H   0  0  0  0  0  0  0  0  0  0  0  0
    1.7885    3.3749    4.0321 H   0  0  0  0  0  0  0  0  0  0  0  0
    3.9921    0.6653    3.8400 H   0  0  0  0  0  0  0  0  0  0  0  0
    5.0513   -0.8545    1.6373 H   0  0  0  0  0  0  0  0  0  0  0  0
    3.9890    0.1834   -0.5599 H   0  0  0  0  0  0  0  0  0  0  0  0
    5.1206   -1.1047   -0.4566 H   0  0  0  0  0  0  0  0  0  0  0  0
    2.8489   -1.0803   -2.7325 H   0  0  0  0  0  0  0  0  0  0  0  0
    2.3828   -4.0566   -2.1254 H   0  0  0  0  0  0  0  0  0  0  0  0
    1.1585   -2.8382   -2.5097 H   0  0  0  0  0  0  0  0  0  0  0  0
    1.7982   -4.3118   -4.4212 H   0  0  0  0  0  0  0  0  0  0  0  0
    2.1515   -2.5938   -4.7569 H   0  0  0  0  0  0  0  0  0  0  0  0
    5.5453   -3.3112   -4.0712 H   0  0  0  0  0  0  0  0  0  0  0  0
    4.5035   -1.9146   -4.7482 H   0  0  0  0  0  0  0  0  0  0  0  0
    5.2488   -1.4204   -2.6500 H   0  0  0  0  0  0  0  0  0  0  0  0
    5.0701   -3.1020   -2.1092 H   0  0  0  0  0  0  0  0  0  0  0  0
    2.3332   -3.6404    0.0552 H   0  0  0  0  0  0  0  0  0  0  0  0
    4.0692   -3.5315   -0.2239 H   0  0  0  0  0  0  0  0  0  0  0  0
    5.0054   -3.8554    1.6285 H   0  0  0  0  0  0  0  0  0  0  0  0
    4.8701   -2.8266    3.0394 H   0  0  0  0  0  0  0  0  0  0  0  0
    3.2468   -5.2029    2.1939 H   0  0  0  0  0  0  0  0  0  0  0  0
    3.7253   -4.7316    3.8594 H   0  0  0  0  0  0  0  0  0  0  0  0
    1.9746   -1.6412    3.0091 H   0  0  0  0  0  0  0  0  0  0  0  0
    1.2204   -2.2226    1.5451 H   0  0  0  0  0  0  0  0  0  0  0  0
    1.3839    0.4048    0.5190 H   0  0  0  0  0  0  0  0  0  0  0  0
    2.1040   -1.4665   -0.6546 H   0  0  0  0  0  0  0  0  0  0  0  0
  1  2  1  0
  1 24  1  0
  1 25  1  0
  1 26  1  0
  2 23  1  0
  2  3  1  0
  3  4  2  0
  3 27  1  0
  4  5  1  0
  4 22  1  0
  5 15  1  0
  5  6  1  0
  5 28  1  1
  6  7  1  0
  6 29  1  0
  6 30  1  0
  7  8  1  0
  7 14  1  0
  7 49  1  6
  8 13  1  0
  8  9  1  0
  8 31  1  0
  9 10  1  0
  9 32  1  0
  9 33  1  0
 10 11  1  0
 10 34  1  0
 10 35  1  0
 11 12  1  0
 12 13  1  0
 12 36  1  0
 12 37  1  0
 13 38  1  0
 13 39  1  0
 15 14  1  6
 14 40  1  0
 14 41  1  0
 15 21  1  0
 15 16  1  0
 16 17  1  0
 16 42  1  0
 16 43  1  0
 17 18  1  0
 17 44  1  0
 17 45  1  0
 18 19  1  0
 18 20  1  0
 18 21  1  0
 21 46  1  0
 21 47  1  0
 22 23  2  0
 22 48  1  0
M  CHG  1   7   1
M  END
>  <i_m_ct_stereo_status>  (164) 
1

>  <s_m_source_file>  (164) 
/var/tmp/pbs.5076255.sched01/tmpmmp70uc3/38qnywpnyg.sdf

>  <i_m_source_file_index>  (164) 
36

>  <i_lp_mmshare_version>  (164) 
48012

>  <i_f3d_flags>  (164) 
0

>  <s_epik_input>  (164) 
RkMoRikoW0NIMl0xKVtDSDJdW0NIMl1bQ0BdMTJbQ0BIXShjKFtjSF1uMylbY0hdbjNbQ0gzXSlbQ0gyXU4oW0NIMl0yKVtDSF00W0NIMl1bQ0gyXU9bQ0gyXVtDSDJdNA==

>  <s_epik_cmdline>  (164) 
J2VwaWtfcHl0aG9uJywgJy1waHQnLCAnMi4wJywgJy1waCcsICc3LjAnLCAnLXRuJywgJzgnLCAnLW1hJywgJzIwMCcsICctaW1hZScsICc8aW5maWxlLm1hZT4nLCAnLW9tYWUnLCAnPG91dGZpbGUubWFlPic=

>  <r_lp_tautomer_probability>  (164) 
1

>  <r_epik_Ionization_Penalty>  (164) 
0.00716028

>  <r_epik_Ionization_Penalty_Charging>  (164) 
0.00714592

>  <r_epik_Ionization_Penalty_Neutral>  (164) 
1.4359e-05

>  <r_epik_State_Penalty>  (164) 
0.00532355

>  <r_epik_Charging_Adjusted_Penalty>  (164) 
0.0124695

>  <i_epik_Tot_Q>  (164) 
1

>  <i_epik_Tot_abs_Q>  (164) 
1

>  <s_lp_Force_Field>  (164) 
OPLS3e

>  <r_lp_Energy>  (164) 
20.3563

>  <b_lp_Chiralities_Consistent>  (164) 
1

>  <s_lp_Variant>  (164) 
55:0-1

>  <s_i_glide_gridfile>  (164) 
pfpi4k_grid

>  <i_i_glide_lignum>  (164) 
36

>  <i_i_glide_rotatable_bonds>  (164) 
2

>  <r_i_docking_score>  (164) 
-2.84704

>  <r_i_glide_ligand_efficiency>  (164) 
-0.123784

>  <r_i_glide_ligand_efficiency_sa>  (164) 
-0.352026

>  <r_i_glide_ligand_efficiency_ln>  (164) 
-0.688439

>  <r_i_glide_gscore>  (164) 
-2.84704

>  <r_i_glide_lipo>  (164) 
-0.384116

>  <r_i_glide_hbond>  (164) 
-0.198078

>  <r_i_glide_metal>  (164) 
-0

>  <r_i_glide_rewards>  (164) 
-1.197

>  <r_i_glide_evdw>  (164) 
-3.69056

>  <r_i_glide_ecoul>  (164) 
-7.4295

>  <r_i_glide_erotb>  (164) 
0.352061

>  <r_i_glide_esite>  (164) 
-0.120955

>  <r_i_glide_emodel>  (164) 
-5.87871

>  <r_i_glide_energy>  (164) 
-11.1201

>  <r_i_glide_einternal>  (164) 
10.5647

>  <r_i_glide_intrahb_reward>  (164) 
-0

>  <i_i_glide_confnum>  (164) 
5

>  <i_i_glide_posenum>  (164) 
9

>  <r_i_glide_eff_state_penalty>  (164) 
0

>  <ligand_id>  (164) 
55

>  <original_smiles>  (164) 
Cn1cc(C2CN(C3CCOCC3)CC23CCC(F)(F)C3)cn1

>  <smiles>  (164) 
[H]c1nn(C([H])([H])[H])c([H])c1C1([H])C2(C([H])([H])C([H])([H])C(F)(F)C2([H])[H])C([H])([H])[N+]([H])(C2([H])C([H])([H])C([H])([H])OC([H])([H])C2([H])[H])C1([H])[H]

$$$$
56:0:0
     RDKit          3D

 64 68  0  0  1  0  0  0  0  0999 V2000
    5.3578   -5.3054   -0.3261 C   0  0  0  0  0  0  0  0  0  0  0  0
    6.0155   -5.1948    0.8411 C   0  0  0  0  0  0  0  0  0  0  0  0
    6.8257   -3.9324    1.1051 C   0  0  0  0  0  0  0  0  0  0  0  0
    5.9944   -6.2367    1.9778 C   0  0  2  0  0  0  0  0  0  0  0  0
    7.4080   -6.6627    2.4251 C   0  0  0  0  0  0  0  0  0  0  0  0
    7.5855   -8.0948    1.9387 C   0  0  0  0  0  0  0  0  0  0  0  0
    6.2043   -8.7536    2.0705 C   0  0  1  0  0  0  0  0  0  0  0  0
    6.0615   -9.9219    1.0485 C   0  0  0  0  0  0  0  0  0  0  0  0
    6.6126  -11.1652    1.4463 O   0  0  0  0  0  0  0  0  0  0  0  0
    5.9969   -9.2133    3.5343 C   0  0  0  0  0  0  0  0  0  0  0  0
    4.5259   -9.5233    3.8498 C   0  0  0  0  0  0  0  0  0  0  0  0
    3.5594   -8.3061    3.6758 C   0  0  1  0  0  0  0  0  0  0  0  0
    4.0079   -7.2469    4.7292 C   0  0  0  0  0  0  0  0  0  0  0  0
    3.7554   -7.7423    2.2249 C   0  0  1  0  0  0  0  0  0  0  0  0
    2.8640   -6.5065    1.9346 C   0  0  0  0  0  0  0  0  0  0  0  0
    1.5179   -6.4863    2.6914 C   0  0  0  0  0  0  0  0  0  0  0  0
    1.0116   -7.9048    2.9825 C   0  0  2  0  0  0  0  0  0  0  0  0
   -0.4516   -7.9093    3.4473 C   0  0  2  0  0  0  0  0  0  0  0  0
   -1.4689   -7.8463    2.3418 C   0  0  0  0  0  0  0  0  0  0  0  0
   -0.7392   -7.0605    4.5984 O   0  0  0  0  0  0  0  0  0  0  0  0
   -0.8440   -8.4874    4.8046 C   0  0  2  0  0  0  0  0  0  0  0  0
    0.1678   -9.1011    5.7136 C   0  0  0  0  0  0  0  0  0  0  0  0
    1.5963   -8.6277    5.3868 C   0  0  0  0  0  0  0  0  0  0  0  0
    2.0090   -8.7383    3.8804 C   0  0  2  0  0  0  0  0  0  0  0  0
    1.7718  -10.2159    3.4499 C   0  0  0  0  0  0  0  0  0  0  0  0
    5.2373   -7.5837    1.6961 C   0  0  1  0  0  0  0  0  0  0  0  0
    5.4437   -4.5219   -1.0628 H   0  0  0  0  0  0  0  0  0  0  0  0
    4.7253   -6.1298   -0.6039 H   0  0  0  0  0  0  0  0  0  0  0  0
    6.4242   -3.3928    1.9605 H   0  0  0  0  0  0  0  0  0  0  0  0
    6.7855   -3.2555    0.2523 H   0  0  0  0  0  0  0  0  0  0  0  0
    7.8795   -4.1266    1.2942 H   0  0  0  0  0  0  0  0  0  0  0  0
    5.5453   -5.7124    2.8178 H   0  0  0  0  0  0  0  0  0  0  0  0
    8.2274   -6.0538    2.0592 H   0  0  0  0  0  0  0  0  0  0  0  0
    7.4747   -6.6486    3.5132 H   0  0  0  0  0  0  0  0  0  0  0  0
    7.8882   -8.0508    0.8934 H   0  0  0  0  0  0  0  0  0  0  0  0
    8.3698   -8.6158    2.4880 H   0  0  0  0  0  0  0  0  0  0  0  0
    5.0115  -10.1116    0.8447 H   0  0  0  0  0  0  0  0  0  0  0  0
    6.5247   -9.6569    0.0994 H   0  0  0  0  0  0  0  0  0  0  0  0
    5.9366  -11.8123    1.3065 H   0  0  0  0  0  0  0  0  0  0  0  0
    6.6011  -10.1010    3.7415 H   0  0  0  0  0  0  0  0  0  0  0  0
    6.3839   -8.4784    4.2314 H   0  0  0  0  0  0  0  0  0  0  0  0
    4.2580  -10.3417    3.1822 H   0  0  0  0  0  0  0  0  0  0  0  0
    4.4535   -9.9220    4.8629 H   0  0  0  0  0  0  0  0  0  0  0  0
    3.3842   -6.3590    4.7542 H   0  0  0  0  0  0  0  0  0  0  0  0
    5.0162   -6.8866    4.5575 H   0  0  0  0  0  0  0  0  0  0  0  0
    4.0252   -7.6599    5.7372 H   0  0  0  0  0  0  0  0  0  0  0  0
    3.3462   -8.5311    1.5981 H   0  0  0  0  0  0  0  0  0  0  0  0
    3.3827   -5.5751    2.1296 H   0  0  0  0  0  0  0  0  0  0  0  0
    2.6476   -6.5061    0.8622 H   0  0  0  0  0  0  0  0  0  0  0  0
    1.6160   -5.9358    3.6318 H   0  0  0  0  0  0  0  0  0  0  0  0
    0.7919   -5.9185    2.1192 H   0  0  0  0  0  0  0  0  0  0  0  0
    0.9854   -8.3889    2.0004 H   0  0  0  0  0  0  0  0  0  0  0  0
   -1.4126   -8.7465    1.7246 H   0  0  0  0  0  0  0  0  0  0  0  0
   -1.2915   -6.9801    1.7150 H   0  0  0  0  0  0  0  0  0  0  0  0
   -2.4818   -7.7846    2.7480 H   0  0  0  0  0  0  0  0  0  0  0  0
   -1.8691   -8.8270    4.9172 H   0  0  0  0  0  0  0  0  0  0  0  0
   -0.0863   -8.8665    6.7465 H   0  0  0  0  0  0  0  0  0  0  0  0
    0.1027  -10.1907    5.6274 H   0  0  0  0  0  0  0  0  0  0  0  0
    1.6473   -7.5842    5.7068 H   0  0  0  0  0  0  0  0  0  0  0  0
    2.2960   -9.1784    6.0117 H   0  0  0  0  0  0  0  0  0  0  0  0
    0.7102  -10.4733    3.4142 H   0  0  0  0  0  0  0  0  0  0  0  0
    2.2369  -10.9215    4.1376 H   0  0  0  0  0  0  0  0  0  0  0  0
    2.1550  -10.4113    2.4456 H   0  0  0  0  0  0  0  0  0  0  0  0
    5.1585   -7.6914    0.6265 H   0  0  0  0  0  0  0  0  0  0  0  0
  1  2  2  0
  1 27  1  0
  1 28  1  0
  2  3  1  0
  2  4  1  0
  3 29  1  0
  3 30  1  0
  3 31  1  0
  4 26  1  0
  4  5  1  0
  4 32  1  1
  5  6  1  0
  5 33  1  0
  5 34  1  0
  6  7  1  0
  6 35  1  0
  6 36  1  0
  7 26  1  0
  7  8  1  6
  7 10  1  0
  8  9  1  0
  8 37  1  0
  8 38  1  0
  9 39  1  0
 10 11  1  0
 10 40  1  0
 10 41  1  0
 11 12  1  0
 11 42  1  0
 11 43  1  0
 12 24  1  0
 12 13  1  1
 12 14  1  0
 13 44  1  0
 13 45  1  0
 13 46  1  0
 14 15  1  0
 14 26  1  0
 14 47  1  6
 15 16  1  0
 15 48  1  0
 15 49  1  0
 16 17  1  0
 16 50  1  0
 16 51  1  0
 17 24  1  0
 17 18  1  0
 17 52  1  6
 18 21  1  0
 18 19  1  6
 18 20  1  0
 19 53  1  0
 19 54  1  0
 19 55  1  0
 20 21  1  0
 21 22  1  0
 21 56  1  6
 22 23  1  0
 22 57  1  0
 22 58  1  0
 23 24  1  0
 23 59  1  0
 23 60  1  0
 24 25  1  6
 25 61  1  0
 25 62  1  0
 25 63  1  0
 26 64  1  6
M  END
>  <i_m_ct_stereo_status>  (165) 
1

>  <s_m_source_file>  (165) 
/var/tmp/pbs.5076255.sched01/tmpmmp70uc3/38qnywpnyg.sdf

>  <i_m_source_file_index>  (165) 
37

>  <i_lp_mmshare_version>  (165) 
48012

>  <i_f3d_flags>  (165) 
0

>  <s_epik_input>  (165) 
W0NIMl09QyhbQ0gzXSlbQ0BIXShbQ0gyXVtDSDJdMSlbQ0BASF0oW0NAQF0xMltDSDJdW09IXSlbQ0BIXTNbQ0BdKFtDSDNdKShbQ0gyXVtDSDJdMilbQ0BdNChbQ0gzXSlbQ0BIXShbQ0gyXVtDSDJdMylbQ0BAXTUoW0NIM10pW0NASF0oTzUpW0NIMl1bQ0gyXTQ=

>  <s_epik_cmdline>  (165) 
J2VwaWtfcHl0aG9uJywgJy1waHQnLCAnMi4wJywgJy1waCcsICc3LjAnLCAnLXRuJywgJzgnLCAnLW1hJywgJzIwMCcsICctaW1hZScsICc8aW5maWxlLm1hZT4nLCAnLW9tYWUnLCAnPG91dGZpbGUubWFlPic=

>  <r_lp_tautomer_probability>  (165) 
1

>  <r_epik_Ionization_Penalty>  (165) 
1.17772e-06

>  <r_epik_Ionization_Penalty_Charging>  (165) 
0

>  <r_epik_Ionization_Penalty_Neutral>  (165) 
1.17772e-06

>  <r_epik_State_Penalty>  (165) 
-0

>  <r_epik_Charging_Adjusted_Penalty>  (165) 
0

>  <i_epik_Tot_Q>  (165) 
0

>  <i_epik_Tot_abs_Q>  (165) 
0

>  <s_lp_Force_Field>  (165) 
OPLS3e

>  <r_lp_Energy>  (165) 
68.9447

>  <b_lp_Chiralities_Consistent>  (165) 
1

>  <s_lp_Variant>  (165) 
56:0-1

>  <s_i_glide_gridfile>  (165) 
pfpi4k_grid

>  <i_i_glide_lignum>  (165) 
37

>  <i_i_glide_rotatable_bonds>  (165) 
3

>  <r_i_docking_score>  (165) 
-3.06542

>  <r_i_glide_ligand_efficiency>  (165) 
-0.117901

>  <r_i_glide_ligand_efficiency_sa>  (165) 
-0.349281

>  <r_i_glide_ligand_efficiency_ln>  (165) 
-0.719905

>  <r_i_glide_gscore>  (165) 
-3.06542

>  <r_i_glide_lipo>  (165) 
-0.416857

>  <r_i_glide_hbond>  (165) 
-0.189366

>  <r_i_glide_metal>  (165) 
-0

>  <r_i_glide_rewards>  (165) 
-0.964382

>  <r_i_glide_evdw>  (165) 
-21.2304

>  <r_i_glide_ecoul>  (165) 
-4.87545

>  <r_i_glide_erotb>  (165) 
0.298019

>  <r_i_glide_esite>  (165) 
0

>  <r_i_glide_emodel>  (165) 
-26.9232

>  <r_i_glide_energy>  (165) 
-26.1059

>  <r_i_glide_einternal>  (165) 
7.49127

>  <r_i_glide_intrahb_reward>  (165) 
-0

>  <i_i_glide_confnum>  (165) 
4

>  <i_i_glide_posenum>  (165) 
35

>  <r_i_glide_eff_state_penalty>  (165) 
0

>  <ligand_id>  (165) 
56

>  <original_smiles>  (165) 
C=C(C)C1CCC2(CO)CCC3(C)C(CCC4C5(C)OC5CCC43C)C12

>  <smiles>  (165) 
[H]OC([H])([H])C12C([H])([H])C([H])([H])C([H])(C(=C([H])[H])C([H])([H])[H])C1([H])C1([H])C([H])([H])C([H])([H])C3([H])C4(C([H])([H])[H])OC4([H])C([H])([H])C([H])([H])C3(C([H])([H])[H])C1(C([H])([H])[H])C([H])([H])C2([H])[H]

$$$$
57:0:0
     RDKit          3D

 26 28  0  0  1  0  0  0  0  0999 V2000
    7.1882   -3.0853   -1.9115 C   0  0  0  0  0  0  0  0  0  0  0  0
    6.5586   -1.8749   -1.5370 O   0  0  0  0  0  0  0  0  0  0  0  0
    5.1241   -1.8892   -1.4632 C   0  0  2  0  0  0  0  0  0  0  0  0
    4.5867   -2.9466   -0.4773 C   0  0  1  0  0  0  0  0  0  0  0  0
    3.3294   -2.6603    0.1310 O   0  0  0  0  0  0  0  0  0  0  0  0
    3.3158   -3.7011   -0.8413 C   0  0  1  0  0  0  0  0  0  0  0  0
    2.5641   -3.3614   -2.1425 C   0  0  1  0  0  0  0  0  0  0  0  0
    1.1817   -3.5396   -1.9263 O   0  0  0  0  0  0  0  0  0  0  0  0
    2.9593   -1.9662   -2.5722 C   0  0  2  0  0  0  0  0  0  0  0  0
    3.6042   -1.3767   -3.7875 C   0  0  1  0  0  0  0  0  0  0  0  0
    3.7940    0.1111   -3.9578 C   0  0  0  0  0  0  0  0  0  0  0  0
    4.4669   -2.1362   -2.8205 C   0  0  1  0  0  0  0  0  0  0  0  0
    8.2779   -2.9855   -1.9146 H   0  0  0  0  0  0  0  0  0  0  0  0
    6.8886   -3.4361   -2.9064 H   0  0  0  0  0  0  0  0  0  0  0  0
    6.9511   -3.8690   -1.1937 H   0  0  0  0  0  0  0  0  0  0  0  0
    4.8261   -0.9146   -1.0879 H   0  0  0  0  0  0  0  0  0  0  0  0
    5.2850   -3.3700    0.2370 H   0  0  0  0  0  0  0  0  0  0  0  0
    3.2441   -4.7205   -0.4745 H   0  0  0  0  0  0  0  0  0  0  0  0
    2.8444   -4.0506   -2.9414 H   0  0  0  0  0  0  0  0  0  0  0  0
    0.7707   -3.7741   -2.7566 H   0  0  0  0  0  0  0  0  0  0  0  0
    2.6167   -1.1928   -1.8793 H   0  0  0  0  0  0  0  0  0  0  0  0
    3.4027   -1.8847   -4.7275 H   0  0  0  0  0  0  0  0  0  0  0  0
    4.0604    0.5772   -3.0084 H   0  0  0  0  0  0  0  0  0  0  0  0
    2.8707    0.5592   -4.3278 H   0  0  0  0  0  0  0  0  0  0  0  0
    4.5828    0.3027   -4.6856 H   0  0  0  0  0  0  0  0  0  0  0  0
    4.8106   -3.0678   -3.2781 H   0  0  0  0  0  0  0  0  0  0  0  0
  1  2  1  0
  1 13  1  0
  1 14  1  0
  1 15  1  0
  2  3  1  0
  3 12  1  0
  3  4  1  0
  3 16  1  1
  4  6  1  0
  4  5  1  0
  4 17  1  1
  5  6  1  0
  6  7  1  0
  6 18  1  1
  7  8  1  0
  7  9  1  0
  7 19  1  6
  8 20  1  0
  9 12  1  0
  9 10  1  0
  9 21  1  1
 10 11  1  0
 10 12  1  0
 10 22  1  6
 11 23  1  0
 11 24  1  0
 11 25  1  0
 12 26  1  6
M  END
>  <i_m_ct_stereo_status>  (166) 
1

>  <s_m_source_file>  (166) 
/var/tmp/pbs.5076255.sched01/tmpmmp70uc3/38qnywpnyg.sdf

>  <i_m_source_file_index>  (166) 
38

>  <i_lp_mmshare_version>  (166) 
48012

>  <i_f3d_flags>  (166) 
0

>  <s_epik_input>  (166) 
W0NIM11PW0NASF0xW0NASF0oW0NAQEhdMltDSDNdKVtDQEBIXTJbQ0BIXShbT0hdKVtDQEhdKE8zKVtDQEBIXTEz

>  <s_epik_cmdline>  (166) 
J2VwaWtfcHl0aG9uJywgJy1waHQnLCAnMi4wJywgJy1waCcsICc3LjAnLCAnLXRuJywgJzgnLCAnLW1hJywgJzIwMCcsICctaW1hZScsICc8aW5maWxlLm1hZT4nLCAnLW9tYWUnLCAnPG91dGZpbGUubWFlPic=

>  <r_lp_tautomer_probability>  (166) 
1

>  <r_epik_Ionization_Penalty>  (166) 
6.87091e-08

>  <r_epik_Ionization_Penalty_Charging>  (166) 
0

>  <r_epik_Ionization_Penalty_Neutral>  (166) 
6.87091e-08

>  <r_epik_State_Penalty>  (166) 
-0

>  <r_epik_Charging_Adjusted_Penalty>  (166) 
0

>  <i_epik_Tot_Q>  (166) 
0

>  <i_epik_Tot_abs_Q>  (166) 
0

>  <s_lp_Force_Field>  (166) 
OPLS3e

>  <r_lp_Energy>  (166) 
28.1049

>  <b_lp_Chiralities_Consistent>  (166) 
1

>  <s_lp_Variant>  (166) 
57:0-1

>  <s_i_glide_gridfile>  (166) 
pfpi4k_grid

>  <i_i_glide_lignum>  (166) 
38

>  <i_i_glide_rotatable_bonds>  (166) 
2

>  <r_i_docking_score>  (166) 
-4.48543

>  <r_i_glide_ligand_efficiency>  (166) 
-0.373786

>  <r_i_glide_ligand_efficiency_sa>  (166) 
-0.855755

>  <r_i_glide_ligand_efficiency_ln>  (166) 
-1.2871

>  <r_i_glide_gscore>  (166) 
-4.48543

>  <r_i_glide_lipo>  (166) 
-0.480522

>  <r_i_glide_hbond>  (166) 
-0.16

>  <r_i_glide_metal>  (166) 
-0

>  <r_i_glide_rewards>  (166) 
-2.2486

>  <r_i_glide_evdw>  (166) 
-10.7048

>  <r_i_glide_ecoul>  (166) 
-7.07377

>  <r_i_glide_erotb>  (166) 
0

>  <r_i_glide_esite>  (166) 
0

>  <r_i_glide_emodel>  (166) 
-19.953

>  <r_i_glide_energy>  (166) 
-17.7786

>  <r_i_glide_einternal>  (166) 
6.41862

>  <r_i_glide_intrahb_reward>  (166) 
-0

>  <i_i_glide_confnum>  (166) 
1

>  <i_i_glide_posenum>  (166) 
1

>  <r_i_glide_eff_state_penalty>  (166) 
0

>  <ligand_id>  (166) 
57

>  <original_smiles>  (166) 
COC1C2OC2C(O)C2C(C)C12

>  <smiles>  (166) 
[H]OC1([H])C2([H])OC2([H])C([H])(OC([H])([H])[H])C2([H])C([H])(C([H])([H])[H])C12[H]

$$$$
57:0:1
     RDKit          3D

 26 28  0  0  1  0  0  0  0  0999 V2000
    7.2925   -3.1229   -1.8597 C   0  0  0  0  0  0  0  0  0  0  0  0
    6.6652   -1.8699   -1.5216 O   0  0  0  0  0  0  0  0  0  0  0  0
    5.2468   -1.8899   -1.3900 C   0  0  2  0  0  0  0  0  0  0  0  0
    4.7407   -2.8612   -0.3040 C   0  0  1  0  0  0  0  0  0  0  0  0
    3.5163   -2.5083    0.3473 O   0  0  0  0  0  0  0  0  0  0  0  0
    3.4516   -3.6227   -0.5380 C   0  0  1  0  0  0  0  0  0  0  0  0
    2.6517   -3.3879   -1.8260 C   0  0  1  0  0  0  0  0  0  0  0  0
    1.2833   -3.4534   -1.5603 O   0  0  0  0  0  0  0  0  0  0  0  0
    3.0282   -2.0310   -2.3827 C   0  0  2  0  0  0  0  0  0  0  0  0
    3.6134   -1.5186   -3.6640 C   0  0  1  0  0  0  0  0  0  0  0  0
    3.7976   -0.0540   -3.9581 C   0  0  0  0  0  0  0  0  0  0  0  0
    4.5141   -2.2081   -2.6925 C   0  0  1  0  0  0  0  0  0  0  0  0
    8.3790   -3.0120   -1.9080 H   0  0  0  0  0  0  0  0  0  0  0  0
    6.9702   -3.5300   -2.8171 H   0  0  0  0  0  0  0  0  0  0  0  0
    7.0941   -3.8769   -1.1027 H   0  0  0  0  0  0  0  0  0  0  0  0
    4.9583   -0.8876   -1.0752 H   0  0  0  0  0  0  0  0  0  0  0  0
    5.4694   -3.2242    0.4274 H   0  0  0  0  0  0  0  0  0  0  0  0
    3.4276   -4.6218   -0.0944 H   0  0  0  0  0  0  0  0  0  0  0  0
    2.8968   -4.1405   -2.5550 H   0  0  0  0  0  0  0  0  0  0  0  0
    1.0438   -2.5275   -1.3578 H   0  0  0  0  0  0  0  0  0  0  0  0
    2.7225   -1.2187   -1.7306 H   0  0  0  0  0  0  0  0  0  0  0  0
    3.3714   -2.1013   -4.5432 H   0  0  0  0  0  0  0  0  0  0  0  0
    4.1052    0.4710   -3.0540 H   0  0  0  0  0  0  0  0  0  0  0  0
    2.8579    0.3654   -4.3202 H   0  0  0  0  0  0  0  0  0  0  0  0
    4.5635    0.0687   -4.7261 H   0  0  0  0  0  0  0  0  0  0  0  0
    4.7777   -3.1753   -3.1018 H   0  0  0  0  0  0  0  0  0  0  0  0
  1  2  1  0
  1 13  1  0
  1 14  1  0
  1 15  1  0
  2  3  1  0
  3 12  1  0
  3  4  1  0
  3 16  1  1
  4  6  1  0
  4  5  1  0
  4 17  1  1
  5  6  1  0
  6  7  1  0
  6 18  1  1
  7  8  1  0
  7  9  1  0
  7 19  1  6
  8 20  1  0
  9 12  1  0
  9 10  1  0
  9 21  1  1
 10 11  1  0
 10 12  1  0
 10 22  1  6
 11 23  1  0
 11 24  1  0
 11 25  1  0
 12 26  1  6
M  END
>  <i_m_ct_stereo_status>  (167) 
1

>  <s_m_source_file>  (167) 
/var/tmp/pbs.5076255.sched01/tmpmmp70uc3/38qnywpnyg.sdf

>  <i_m_source_file_index>  (167) 
38

>  <i_lp_mmshare_version>  (167) 
48012

>  <i_f3d_flags>  (167) 
0

>  <s_epik_input>  (167) 
W0NIM11PW0NASF0xW0NASF0oW0NAQEhdMltDSDNdKVtDQEBIXTJbQ0BIXShbT0hdKVtDQEhdKE8zKVtDQEBIXTEz

>  <s_epik_cmdline>  (167) 
J2VwaWtfcHl0aG9uJywgJy1waHQnLCAnMi4wJywgJy1waCcsICc3LjAnLCAnLXRuJywgJzgnLCAnLW1hJywgJzIwMCcsICctaW1hZScsICc8aW5maWxlLm1hZT4nLCAnLW9tYWUnLCAnPG91dGZpbGUubWFlPic=

>  <r_lp_tautomer_probability>  (167) 
1

>  <r_epik_Ionization_Penalty>  (167) 
6.87091e-08

>  <r_epik_Ionization_Penalty_Charging>  (167) 
0

>  <r_epik_Ionization_Penalty_Neutral>  (167) 
6.87091e-08

>  <r_epik_State_Penalty>  (167) 
-0

>  <r_epik_Charging_Adjusted_Penalty>  (167) 
0

>  <i_epik_Tot_Q>  (167) 
0

>  <i_epik_Tot_abs_Q>  (167) 
0

>  <s_lp_Force_Field>  (167) 
OPLS3e

>  <r_lp_Energy>  (167) 
28.1049

>  <b_lp_Chiralities_Consistent>  (167) 
1

>  <s_lp_Variant>  (167) 
57:0-1

>  <s_i_glide_gridfile>  (167) 
pfpi4k_grid

>  <i_i_glide_lignum>  (167) 
38

>  <i_i_glide_rotatable_bonds>  (167) 
2

>  <r_i_docking_score>  (167) 
-4.45785

>  <r_i_glide_ligand_efficiency>  (167) 
-0.371487

>  <r_i_glide_ligand_efficiency_sa>  (167) 
-0.850493

>  <r_i_glide_ligand_efficiency_ln>  (167) 
-1.27919

>  <r_i_glide_gscore>  (167) 
-4.45785

>  <r_i_glide_lipo>  (167) 
-0.625556

>  <r_i_glide_hbond>  (167) 
-0.16

>  <r_i_glide_metal>  (167) 
-0

>  <r_i_glide_rewards>  (167) 
-2.2486

>  <r_i_glide_evdw>  (167) 
-9.30817

>  <r_i_glide_ecoul>  (167) 
-6.38855

>  <r_i_glide_erotb>  (167) 
0

>  <r_i_glide_esite>  (167) 
0

>  <r_i_glide_emodel>  (167) 
-17.924

>  <r_i_glide_energy>  (167) 
-15.6967

>  <r_i_glide_einternal>  (167) 
6.25715

>  <r_i_glide_intrahb_reward>  (167) 
-0

>  <i_i_glide_confnum>  (167) 
1

>  <i_i_glide_posenum>  (167) 
24

>  <r_i_glide_eff_state_penalty>  (167) 
0

>  <ligand_id>  (167) 
57

>  <original_smiles>  (167) 
COC1C2OC2C(O)C2C(C)C12

>  <smiles>  (167) 
[H]OC1([H])C2([H])OC2([H])C([H])(OC([H])([H])[H])C2([H])C([H])(C([H])([H])[H])C12[H]

$$$$
57:0:2
     RDKit          3D

 26 28  0  0  1  0  0  0  0  0999 V2000
    3.5992   -0.2365    0.9177 C   0  0  0  0  0  0  0  0  0  0  0  0
    4.4670   -0.3490   -0.1940 O   0  0  0  0  0  0  0  0  0  0  0  0
    4.0355   -1.3425   -1.1089 C   0  0  2  0  0  0  0  0  0  0  0  0
    4.4970   -2.7258   -0.6670 C   0  0  1  0  0  0  0  0  0  0  0  0
    3.6400   -3.7841   -1.0933 O   0  0  0  0  0  0  0  0  0  0  0  0
    4.9419   -3.7610   -1.6882 C   0  0  1  0  0  0  0  0  0  0  0  0
    5.0042   -3.3909   -3.1705 C   0  0  1  0  0  0  0  0  0  0  0  0
    4.6143   -4.4612   -3.9872 O   0  0  0  0  0  0  0  0  0  0  0  0
    4.0857   -2.2104   -3.3678 C   0  0  2  0  0  0  0  0  0  0  0  0
    4.2146   -0.8219   -3.8786 C   0  0  1  0  0  0  0  0  0  0  0  0
    3.0508    0.1020   -4.1099 C   0  0  0  0  0  0  0  0  0  0  0  0
    4.6568   -1.1080   -2.4607 C   0  0  1  0  0  0  0  0  0  0  0  0
    3.9928    0.5169    1.5959 H   0  0  0  0  0  0  0  0  0  0  0  0
    3.5166   -1.1766    1.4626 H   0  0  0  0  0  0  0  0  0  0  0  0
    2.5979    0.0682    0.6125 H   0  0  0  0  0  0  0  0  0  0  0  0
    2.9627   -1.3290   -1.2517 H   0  0  0  0  0  0  0  0  0  0  0  0
    4.8267   -2.8310    0.3538 H   0  0  0  0  0  0  0  0  0  0  0  0
    5.6286   -4.5218   -1.3310 H   0  0  0  0  0  0  0  0  0  0  0  0
    6.0283   -3.1194   -3.4260 H   0  0  0  0  0  0  0  0  0  0  0  0
    3.9457   -4.9575   -3.4928 H   0  0  0  0  0  0  0  0  0  0  0  0
    3.0431   -2.4940   -3.2635 H   0  0  0  0  0  0  0  0  0  0  0  0
    4.9857   -0.6924   -4.6320 H   0  0  0  0  0  0  0  0  0  0  0  0
    2.3293    0.0000   -3.3018 H   0  0  0  0  0  0  0  0  0  0  0  0
    2.5716   -0.1031   -5.0668 H   0  0  0  0  0  0  0  0  0  0  0  0
    3.4347    1.1194   -4.1174 H   0  0  0  0  0  0  0  0  0  0  0  0
    5.7310   -1.0460   -2.3438 H   0  0  0  0  0  0  0  0  0  0  0  0
  1  2  1  0
  1 13  1  0
  1 14  1  0
  1 15  1  0
  2  3  1  0
  3 12  1  0
  3  4  1  0
  3 16  1  6
  4  6  1  0
  4  5  1  0
  4 17  1  1
  5  6  1  0
  6  7  1  0
  6 18  1  1
  7  8  1  0
  7  9  1  0
  7 19  1  6
  8 20  1  0
  9 12  1  0
  9 10  1  0
  9 21  1  1
 10 11  1  0
 10 12  1  0
 10 22  1  6
 11 23  1  0
 11 24  1  0
 11 25  1  0
 12 26  1  1
M  END
>  <i_m_ct_stereo_status>  (168) 
1

>  <s_m_source_file>  (168) 
/var/tmp/pbs.5076255.sched01/tmpmmp70uc3/38qnywpnyg.sdf

>  <i_m_source_file_index>  (168) 
38

>  <i_lp_mmshare_version>  (168) 
48012

>  <i_f3d_flags>  (168) 
0

>  <s_epik_input>  (168) 
W0NIM11PW0NASF0xW0NASF0oW0NAQEhdMltDSDNdKVtDQEBIXTJbQ0BIXShbT0hdKVtDQEhdKE8zKVtDQEBIXTEz

>  <s_epik_cmdline>  (168) 
J2VwaWtfcHl0aG9uJywgJy1waHQnLCAnMi4wJywgJy1waCcsICc3LjAnLCAnLXRuJywgJzgnLCAnLW1hJywgJzIwMCcsICctaW1hZScsICc8aW5maWxlLm1hZT4nLCAnLW9tYWUnLCAnPG91dGZpbGUubWFlPic=

>  <r_lp_tautomer_probability>  (168) 
1

>  <r_epik_Ionization_Penalty>  (168) 
6.87091e-08

>  <r_epik_Ionization_Penalty_Charging>  (168) 
0

>  <r_epik_Ionization_Penalty_Neutral>  (168) 
6.87091e-08

>  <r_epik_State_Penalty>  (168) 
-0

>  <r_epik_Charging_Adjusted_Penalty>  (168) 
0

>  <i_epik_Tot_Q>  (168) 
0

>  <i_epik_Tot_abs_Q>  (168) 
0

>  <s_lp_Force_Field>  (168) 
OPLS3e

>  <r_lp_Energy>  (168) 
28.1049

>  <b_lp_Chiralities_Consistent>  (168) 
1

>  <s_lp_Variant>  (168) 
57:0-1

>  <s_i_glide_gridfile>  (168) 
pfpi4k_grid

>  <i_i_glide_lignum>  (168) 
38

>  <i_i_glide_rotatable_bonds>  (168) 
2

>  <r_i_docking_score>  (168) 
-4.20032

>  <r_i_glide_ligand_efficiency>  (168) 
-0.350026

>  <r_i_glide_ligand_efficiency_sa>  (168) 
-0.80136

>  <r_i_glide_ligand_efficiency_ln>  (168) 
-1.20529

>  <r_i_glide_gscore>  (168) 
-4.20032

>  <r_i_glide_lipo>  (168) 
-0.643417

>  <r_i_glide_hbond>  (168) 
0

>  <r_i_glide_metal>  (168) 
-0

>  <r_i_glide_rewards>  (168) 
-2.2486

>  <r_i_glide_evdw>  (168) 
-13.4167

>  <r_i_glide_ecoul>  (168) 
-4.24977

>  <r_i_glide_erotb>  (168) 
0

>  <r_i_glide_esite>  (168) 
0

>  <r_i_glide_emodel>  (168) 
-22.2193

>  <r_i_glide_energy>  (168) 
-17.6665

>  <r_i_glide_einternal>  (168) 
1.09239

>  <r_i_glide_intrahb_reward>  (168) 
-0

>  <i_i_glide_confnum>  (168) 
1

>  <i_i_glide_posenum>  (168) 
22

>  <r_i_glide_eff_state_penalty>  (168) 
0

>  <ligand_id>  (168) 
57

>  <original_smiles>  (168) 
COC1C2OC2C(O)C2C(C)C12

>  <smiles>  (168) 
[H]OC1([H])C2([H])OC2([H])C([H])(OC([H])([H])[H])C2([H])C([H])(C([H])([H])[H])C12[H]

$$$$
59:0:0
     RDKit          3D

 66 70  0  0  1  0  0  0  0  0999 V2000
    2.4203    5.1133    6.0589 C   0  0  0  0  0  0  0  0  0  0  0  0
    1.2840    4.1024    6.2337 C   0  0  0  0  0  0  0  0  0  0  0  0
    0.2081    4.1115    5.4656 C   0  0  0  0  0  0  0  0  0  0  0  0
   -1.0868    3.5559    5.9881 C   0  0  2  0  0  0  0  0  0  0  0  0
   -1.1703    3.5599    7.5789 C   0  0  0  0  0  0  0  0  0  0  0  0
    0.2006    3.5953    8.3646 C   0  0  0  0  0  0  0  0  0  0  0  0
    1.2648    3.1133    7.3872 C   0  0  2  0  0  0  0  0  0  0  0  0
    2.6526    2.5424    7.6289 C   0  0  0  0  0  0  0  0  0  0  0  0
    2.6093    1.2422    6.7755 C   0  0  1  0  0  0  0  0  0  0  0  0
    1.3535    0.7018    7.3500 C   0  0  0  0  0  0  0  0  0  0  0  0
    0.6189    1.8648    7.0864 O   0  0  0  0  0  0  0  0  0  0  0  0
    2.6637    1.1861    5.1465 C   0  0  1  0  0  0  0  0  0  0  0  0
    3.5265    2.3792    4.6639 C   0  0  0  0  0  0  0  0  0  0  0  0
    3.6521   -0.0956    4.8911 C   0  0  0  0  0  0  0  0  0  0  0  0
    5.1193    0.0960    5.4275 C   0  0  0  0  0  0  0  0  0  0  0  0
    3.1608   -1.4217    5.5536 C   0  0  0  0  0  0  0  0  0  0  0  0
    3.9271   -0.3913    3.3969 C   0  0  0  0  0  0  0  0  0  0  0  0
    2.7120   -0.4076    2.5020 C   0  0  1  0  0  0  0  0  0  0  0  0
    1.8371   -1.9692    2.5719 Cl  0  0  0  0  0  0  0  0  0  0  0  0
    1.7953    0.8002    2.7266 C   0  0  0  0  0  0  0  0  0  0  0  0
    1.2538    1.1341    4.1791 C   0  0  1  0  0  0  0  0  0  0  0  0
    0.5693   -0.0514    4.4875 O   0  0  0  0  0  0  0  0  0  0  0  0
   -0.0511    2.2296    4.0079 C   0  0  2  0  0  0  0  0  0  0  0  0
   -0.7362    1.9714    2.6104 C   0  0  0  0  0  0  0  0  0  0  0  0
    0.3473    3.7560    4.0120 C   0  0  1  0  0  0  0  0  0  0  0  0
   -0.5015    4.6292    3.2870 O   0  0  0  0  0  0  0  0  0  0  0  0
   -1.2742    2.2696    5.1045 C   0  0  1  0  0  0  0  0  0  0  0  0
   -1.7742    0.9624    5.7874 C   0  0  0  0  0  0  0  0  0  0  0  0
   -2.5197    2.5938    4.4945 O   0  0  0  0  0  0  0  0  0  0  0  0
    3.4239    4.7020    5.9896 H   0  0  0  0  0  0  0  0  0  0  0  0
    2.4080    5.8032    6.9038 H   0  0  0  0  0  0  0  0  0  0  0  0
    2.2509    5.7055    5.1538 H   0  0  0  0  0  0  0  0  0  0  0  0
   -1.8004    4.3187    5.6712 H   0  0  0  0  0  0  0  0  0  0  0  0
   -1.7380    4.4369    7.8840 H   0  0  0  0  0  0  0  0  0  0  0  0
   -1.7683    2.7171    7.9176 H   0  0  0  0  0  0  0  0  0  0  0  0
    0.4319    4.6051    8.7018 H   0  0  0  0  0  0  0  0  0  0  0  0
    0.1446    2.9724    9.2559 H   0  0  0  0  0  0  0  0  0  0  0  0
    3.5034    3.1808    7.4197 H   0  0  0  0  0  0  0  0  0  0  0  0
    2.7558    2.2874    8.6858 H   0  0  0  0  0  0  0  0  0  0  0  0
    3.3886    0.6435    7.2221 H   0  0  0  0  0  0  0  0  0  0  0  0
    0.9809   -0.2014    6.8747 H   0  0  0  0  0  0  0  0  0  0  0  0
    1.4253    0.5095    8.4240 H   0  0  0  0  0  0  0  0  0  0  0  0
    4.0048    2.1940    3.7100 H   0  0  0  0  0  0  0  0  0  0  0  0
    4.3202    2.6503    5.3591 H   0  0  0  0  0  0  0  0  0  0  0  0
    2.9652    3.2653    4.4640 H   0  0  0  0  0  0  0  0  0  0  0  0
    5.7056   -0.8092    5.2734 H   0  0  0  0  0  0  0  0  0  0  0  0
    5.2218    0.3250    6.4839 H   0  0  0  0  0  0  0  0  0  0  0  0
    5.6599    0.8780    4.8942 H   0  0  0  0  0  0  0  0  0  0  0  0
    3.7832   -2.2673    5.2590 H   0  0  0  0  0  0  0  0  0  0  0  0
    2.1473   -1.6958    5.2783 H   0  0  0  0  0  0  0  0  0  0  0  0
    3.1941   -1.4056    6.6421 H   0  0  0  0  0  0  0  0  0  0  0  0
    4.6241    0.3312    2.9757 H   0  0  0  0  0  0  0  0  0  0  0  0
    4.4480   -1.3415    3.2836 H   0  0  0  0  0  0  0  0  0  0  0  0
    3.0658   -0.3667    1.4709 H   0  0  0  0  0  0  0  0  0  0  0  0
    2.2868    1.6855    2.3180 H   0  0  0  0  0  0  0  0  0  0  0  0
    1.0294    0.5319    2.0080 H   0  0  0  0  0  0  0  0  0  0  0  0
   -0.0314   -0.2328    3.7792 H   0  0  0  0  0  0  0  0  0  0  0  0
   -1.5950    2.5920    2.3695 H   0  0  0  0  0  0  0  0  0  0  0  0
   -1.0719    0.9418    2.4868 H   0  0  0  0  0  0  0  0  0  0  0  0
   -0.0801    2.2315    1.7837 H   0  0  0  0  0  0  0  0  0  0  0  0
    1.3233    3.9462    3.5797 H   0  0  0  0  0  0  0  0  0  0  0  0
   -0.2968    4.5319    2.3368 H   0  0  0  0  0  0  0  0  0  0  0  0
   -1.0584    0.4578    6.4174 H   0  0  0  0  0  0  0  0  0  0  0  0
   -2.0843    0.2248    5.0456 H   0  0  0  0  0  0  0  0  0  0  0  0
   -2.6318    1.1521    6.4326 H   0  0  0  0  0  0  0  0  0  0  0  0
   -2.7322    1.9214    3.8613 H   0  0  0  0  0  0  0  0  0  0  0  0
  1  2  1  0
  1 30  1  0
  1 31  1  0
  1 32  1  0
  2  7  1  0
  2  3  2  0
  3 25  1  0
  3  4  1  0
  4 27  1  0
  4  5  1  0
  4 33  1  6
  5  6  1  0
  5 34  1  0
  5 35  1  0
  6  7  1  0
  6 36  1  0
  6 37  1  0
  7 11  1  6
  7  8  1  0
  8  9  1  0
  8 38  1  0
  8 39  1  0
  9 10  1  0
  9 12  1  0
  9 40  1  1
 10 11  1  0
 10 41  1  0
 10 42  1  0
 12 21  1  0
 12 13  1  6
 12 14  1  0
 13 43  1  0
 13 44  1  0
 13 45  1  0
 14 15  1  0
 14 16  1  0
 14 17  1  0
 15 46  1  0
 15 47  1  0
 15 48  1  0
 16 49  1  0
 16 50  1  0
 16 51  1  0
 17 18  1  0
 17 52  1  0
 17 53  1  0
 18 19  1  0
 18 20  1  0
 18 54  1  6
 20 21  1  0
 20 55  1  0
 20 56  1  0
 21 22  1  1
 21 23  1  0
 22 57  1  0
 23 24  1  6
 23 25  1  0
 23 27  1  0
 24 58  1  0
 24 59  1  0
 24 60  1  0
 25 26  1  0
 25 61  1  6
 26 62  1  0
 27 28  1  0
 27 29  1  6
 28 63  1  0
 28 64  1  0
 28 65  1  0
 29 66  1  0
M  END
>  <i_m_ct_stereo_status>  (169) 
1

>  <s_m_source_file>  (169) 
/var/tmp/pbs.5076255.sched01/tmpl83nofxy/76c90atywu.sdf

>  <i_m_source_file_index>  (169) 
7

>  <i_lp_mmshare_version>  (169) 
48012

>  <i_f3d_flags>  (169) 
0

>  <s_epik_input>  (169) 
W0NIM11DKFtDQF0xMjMpPUM0W0NASF0oW0NIMl1bQ0gyXTEpW0NAQF0oW0NIM10pKFtPSF0pW0NAQF0oW0NIM10pKFtDQEhdNFtPSF0pW0NAXTUoW09IXSlbQ0BAXShbQ0gzXSkoW0NASF0oW0NIMl0yKVtDSDJdTzMpQyhbQ0gzXSkoW0NIM10pW0NIMl1bQ0BASF0oQ2wpW0NIMl01

>  <s_epik_cmdline>  (169) 
J2VwaWtfcHl0aG9uJywgJy1waHQnLCAnMi4wJywgJy1waCcsICc3LjAnLCAnLXRuJywgJzgnLCAnLW1hJywgJzIwMCcsICctaW1hZScsICc8aW5maWxlLm1hZT4nLCAnLW9tYWUnLCAnPG91dGZpbGUubWFlPic=

>  <r_lp_tautomer_probability>  (169) 
1

>  <r_epik_Ionization_Penalty>  (169) 
5.50975e-07

>  <r_epik_Ionization_Penalty_Charging>  (169) 
0

>  <r_epik_Ionization_Penalty_Neutral>  (169) 
5.50975e-07

>  <r_epik_State_Penalty>  (169) 
-0

>  <r_epik_Charging_Adjusted_Penalty>  (169) 
0

>  <i_epik_Tot_Q>  (169) 
0

>  <i_epik_Tot_abs_Q>  (169) 
0

>  <s_lp_Force_Field>  (169) 
OPLS3e

>  <r_lp_Energy>  (169) 
204.127

>  <b_lp_Chiralities_Consistent>  (169) 
1

>  <s_lp_Variant>  (169) 
59:0-1

>  <s_i_glide_gridfile>  (169) 
pfpi4k_grid

>  <i_i_glide_lignum>  (169) 
7

>  <i_i_glide_rotatable_bonds>  (169) 
3

>  <r_i_docking_score>  (169) 
-2.96242

>  <r_i_glide_ligand_efficiency>  (169) 
-0.102152

>  <r_i_glide_ligand_efficiency_sa>  (169) 
-0.313845

>  <r_i_glide_ligand_efficiency_ln>  (169) 
-0.678319

>  <r_i_glide_gscore>  (169) 
-2.96242

>  <r_i_glide_lipo>  (169) 
-0.074577

>  <r_i_glide_hbond>  (169) 
0

>  <r_i_glide_metal>  (169) 
-0

>  <r_i_glide_rewards>  (169) 
-0.511358

>  <r_i_glide_evdw>  (169) 
-21.5209

>  <r_i_glide_ecoul>  (169) 
-8.66961

>  <r_i_glide_erotb>  (169) 
0

>  <r_i_glide_esite>  (169) 
0

>  <r_i_glide_emodel>  (169) 
-36.1378

>  <r_i_glide_energy>  (169) 
-30.1905

>  <r_i_glide_einternal>  (169) 
0.608437

>  <r_i_glide_intrahb_reward>  (169) 
-0

>  <i_i_glide_confnum>  (169) 
2

>  <i_i_glide_posenum>  (169) 
9

>  <r_i_glide_eff_state_penalty>  (169) 
0

>  <ligand_id>  (169) 
59

>  <original_smiles>  (169) 
CC1=C2C3CCC14CC(CO4)C1(C)C(C)(C)CC(Cl)CC1(O)C(C)(C2O)C3(C)O

>  <smiles>  (169) 
[H]OC1([H])C2=C(C([H])([H])[H])C34OC([H])([H])C([H])(C3([H])[H])C3(C([H])([H])[H])C(O[H])(C([H])([H])C([H])(Cl)C([H])([H])C3(C([H])([H])[H])C([H])([H])[H])C1(C([H])([H])[H])C(O[H])(C([H])([H])[H])C2([H])C([H])([H])C4([H])[H]

$$$$
59:0:1
     RDKit          3D

 66 70  0  0  1  0  0  0  0  0999 V2000
    1.0896    2.1558    8.3187 C   0  0  0  0  0  0  0  0  0  0  0  0
    0.2489    2.1930    7.0423 C   0  0  0  0  0  0  0  0  0  0  0  0
    0.2476    3.2391    6.2273 C   0  0  0  0  0  0  0  0  0  0  0  0
   -0.9503    3.5238    5.3597 C   0  0  2  0  0  0  0  0  0  0  0  0
   -2.2883    2.8846    5.9421 C   0  0  0  0  0  0  0  0  0  0  0  0
   -2.1298    1.6677    6.9389 C   0  0  0  0  0  0  0  0  0  0  0  0
   -0.7364    1.0982    6.6976 C   0  0  2  0  0  0  0  0  0  0  0  0
   -0.1420   -0.2642    7.0066 C   0  0  0  0  0  0  0  0  0  0  0  0
    0.4695   -0.6688    5.6413 C   0  0  1  0  0  0  0  0  0  0  0  0
   -0.7485   -0.4348    4.8305 C   0  0  0  0  0  0  0  0  0  0  0  0
   -0.9262    0.8766    5.2901 O   0  0  0  0  0  0  0  0  0  0  0  0
    1.8252   -0.0300    5.0048 C   0  0  1  0  0  0  0  0  0  0  0  0
    2.7735    0.3471    6.1777 C   0  0  0  0  0  0  0  0  0  0  0  0
    2.5497   -1.3628    4.3797 C   0  0  0  0  0  0  0  0  0  0  0  0
    2.9725   -2.4361    5.4461 C   0  0  0  0  0  0  0  0  0  0  0  0
    1.6754   -2.1456    3.3500 C   0  0  0  0  0  0  0  0  0  0  0  0
    3.9153   -1.0748    3.7125 C   0  0  0  0  0  0  0  0  0  0  0  0
    3.9304    0.0976    2.7747 C   0  0  1  0  0  0  0  0  0  0  0  0
    3.3469   -0.3251    1.1416 Cl  0  0  0  0  0  0  0  0  0  0  0  0
    3.2556    1.3436    3.3621 C   0  0  0  0  0  0  0  0  0  0  0  0
    1.7769    1.2767    3.9095 C   0  0  1  0  0  0  0  0  0  0  0  0
    1.0876    0.8530    2.7623 O   0  0  0  0  0  0  0  0  0  0  0  0
    1.2047    2.8856    4.0694 C   0  0  2  0  0  0  0  0  0  0  0  0
    1.9574    3.7918    3.0192 C   0  0  0  0  0  0  0  0  0  0  0  0
    1.4972    3.5599    5.4674 C   0  0  1  0  0  0  0  0  0  0  0  0
    1.6248    4.9710    5.4711 O   0  0  0  0  0  0  0  0  0  0  0  0
   -0.3951    3.2356    3.9139 C   0  0  1  0  0  0  0  0  0  0  0  0
   -1.2918    2.4430    2.9232 C   0  0  0  0  0  0  0  0  0  0  0  0
   -0.6240    4.5000    3.2883 O   0  0  0  0  0  0  0  0  0  0  0  0
    1.7124    1.2735    8.4582 H   0  0  0  0  0  0  0  0  0  0  0  0
    0.4217    2.2171    9.1805 H   0  0  0  0  0  0  0  0  0  0  0  0
    1.7511    3.0248    8.3585 H   0  0  0  0  0  0  0  0  0  0  0  0
   -1.0728    4.6010    5.4867 H   0  0  0  0  0  0  0  0  0  0  0  0
   -2.8332    3.6605    6.4730 H   0  0  0  0  0  0  0  0  0  0  0  0
   -2.9385    2.6043    5.1177 H   0  0  0  0  0  0  0  0  0  0  0  0
   -2.2287    1.9932    7.9747 H   0  0  0  0  0  0  0  0  0  0  0  0
   -2.9126    0.9298    6.7706 H   0  0  0  0  0  0  0  0  0  0  0  0
    0.5408   -0.3416    7.8474 H   0  0  0  0  0  0  0  0  0  0  0  0
   -0.9433   -0.9619    7.2357 H   0  0  0  0  0  0  0  0  0  0  0  0
    0.5369   -1.7435    5.7231 H   0  0  0  0  0  0  0  0  0  0  0  0
   -0.6161   -0.5422    3.7580 H   0  0  0  0  0  0  0  0  0  0  0  0
   -1.5845   -1.0737    5.1257 H   0  0  0  0  0  0  0  0  0  0  0  0
    3.8258    0.3345    5.9157 H   0  0  0  0  0  0  0  0  0  0  0  0
    2.6687   -0.3086    7.0429 H   0  0  0  0  0  0  0  0  0  0  0  0
    2.6356    1.3471    6.5239 H   0  0  0  0  0  0  0  0  0  0  0  0
    3.4041   -3.3104    4.9564 H   0  0  0  0  0  0  0  0  0  0  0  0
    2.1821   -2.8234    6.0825 H   0  0  0  0  0  0  0  0  0  0  0  0
    3.7513   -2.0742    6.1167 H   0  0  0  0  0  0  0  0  0  0  0  0
    2.2471   -2.9437    2.8751 H   0  0  0  0  0  0  0  0  0  0  0  0
    1.3029   -1.5324    2.5365 H   0  0  0  0  0  0  0  0  0  0  0  0
    0.8093   -2.6341    3.7938 H   0  0  0  0  0  0  0  0  0  0  0  0
    4.6927   -0.8994    4.4563 H   0  0  0  0  0  0  0  0  0  0  0  0
    4.2714   -1.9501    3.1703 H   0  0  0  0  0  0  0  0  0  0  0  0
    4.9763    0.3367    2.5987 H   0  0  0  0  0  0  0  0  0  0  0  0
    3.9070    1.7515    4.1335 H   0  0  0  0  0  0  0  0  0  0  0  0
    3.3711    1.9850    2.5018 H   0  0  0  0  0  0  0  0  0  0  0  0
    1.1372    1.5346    2.1067 H   0  0  0  0  0  0  0  0  0  0  0  0
    1.6510    4.8335    2.9681 H   0  0  0  0  0  0  0  0  0  0  0  0
    1.8277    3.4156    2.0052 H   0  0  0  0  0  0  0  0  0  0  0  0
    3.0213    3.8924    3.2323 H   0  0  0  0  0  0  0  0  0  0  0  0
    2.4279    3.2221    5.9141 H   0  0  0  0  0  0  0  0  0  0  0  0
    2.1164    5.2349    4.7051 H   0  0  0  0  0  0  0  0  0  0  0  0
   -1.4206    1.3895    3.1165 H   0  0  0  0  0  0  0  0  0  0  0  0
   -0.8774    2.4972    1.9196 H   0  0  0  0  0  0  0  0  0  0  0  0
   -2.3014    2.8546    2.8707 H   0  0  0  0  0  0  0  0  0  0  0  0
   -0.3155    4.4680    2.3688 H   0  0  0  0  0  0  0  0  0  0  0  0
  1  2  1  0
  1 30  1  0
  1 31  1  0
  1 32  1  0
  2  7  1  0
  2  3  2  0
  3 25  1  0
  3  4  1  0
  4 27  1  0
  4  5  1  0
  4 33  1  6
  5  6  1  0
  5 34  1  0
  5 35  1  0
  6  7  1  0
  6 36  1  0
  6 37  1  0
  7 11  1  6
  7  8  1  0
  8  9  1  0
  8 38  1  0
  8 39  1  0
  9 10  1  0
  9 12  1  0
  9 40  1  1
 10 11  1  0
 10 41  1  0
 10 42  1  0
 12 21  1  0
 12 13  1  1
 12 14  1  0
 13 43  1  0
 13 44  1  0
 13 45  1  0
 14 15  1  0
 14 16  1  0
 14 17  1  0
 15 46  1  0
 15 47  1  0
 15 48  1  0
 16 49  1  0
 16 50  1  0
 16 51  1  0
 17 18  1  0
 17 52  1  0
 17 53  1  0
 18 19  1  0
 18 20  1  0
 18 54  1  6
 20 21  1  0
 20 55  1  0
 20 56  1  0
 21 22  1  6
 21 23  1  0
 22 57  1  0
 23 24  1  6
 23 25  1  0
 23 27  1  0
 24 58  1  0
 24 59  1  0
 24 60  1  0
 25 26  1  0
 25 61  1  1
 26 62  1  0
 27 28  1  0
 27 29  1  6
 28 63  1  0
 28 64  1  0
 28 65  1  0
 29 66  1  0
M  END
>  <i_m_ct_stereo_status>  (170) 
1

>  <s_m_source_file>  (170) 
/var/tmp/pbs.5076255.sched01/tmpl83nofxy/76c90atywu.sdf

>  <i_m_source_file_index>  (170) 
7

>  <i_lp_mmshare_version>  (170) 
48012

>  <i_f3d_flags>  (170) 
0

>  <s_epik_input>  (170) 
W0NIM11DKFtDQF0xMjMpPUM0W0NASF0oW0NIMl1bQ0gyXTEpW0NAQF0oW0NIM10pKFtPSF0pW0NAQF0oW0NIM10pKFtDQEhdNFtPSF0pW0NAXTUoW09IXSlbQ0BAXShbQ0gzXSkoW0NASF0oW0NIMl0yKVtDSDJdTzMpQyhbQ0gzXSkoW0NIM10pW0NIMl1bQ0BASF0oQ2wpW0NIMl01

>  <s_epik_cmdline>  (170) 
J2VwaWtfcHl0aG9uJywgJy1waHQnLCAnMi4wJywgJy1waCcsICc3LjAnLCAnLXRuJywgJzgnLCAnLW1hJywgJzIwMCcsICctaW1hZScsICc8aW5maWxlLm1hZT4nLCAnLW9tYWUnLCAnPG91dGZpbGUubWFlPic=

>  <r_lp_tautomer_probability>  (170) 
1

>  <r_epik_Ionization_Penalty>  (170) 
5.50975e-07

>  <r_epik_Ionization_Penalty_Charging>  (170) 
0

>  <r_epik_Ionization_Penalty_Neutral>  (170) 
5.50975e-07

>  <r_epik_State_Penalty>  (170) 
-0

>  <r_epik_Charging_Adjusted_Penalty>  (170) 
0

>  <i_epik_Tot_Q>  (170) 
0

>  <i_epik_Tot_abs_Q>  (170) 
0

>  <s_lp_Force_Field>  (170) 
OPLS3e

>  <r_lp_Energy>  (170) 
204.127

>  <b_lp_Chiralities_Consistent>  (170) 
1

>  <s_lp_Variant>  (170) 
59:0-1

>  <s_i_glide_gridfile>  (170) 
pfpi4k_grid

>  <i_i_glide_lignum>  (170) 
7

>  <i_i_glide_rotatable_bonds>  (170) 
3

>  <r_i_docking_score>  (170) 
-2.50148

>  <r_i_glide_ligand_efficiency>  (170) 
-0.0862581

>  <r_i_glide_ligand_efficiency_sa>  (170) 
-0.265012

>  <r_i_glide_ligand_efficiency_ln>  (170) 
-0.572776

>  <r_i_glide_gscore>  (170) 
-2.50148

>  <r_i_glide_lipo>  (170) 
-0.102238

>  <r_i_glide_hbond>  (170) 
0

>  <r_i_glide_metal>  (170) 
-0

>  <r_i_glide_rewards>  (170) 
-0.511358

>  <r_i_glide_evdw>  (170) 
-23.5143

>  <r_i_glide_ecoul>  (170) 
-4.74783

>  <r_i_glide_erotb>  (170) 
0

>  <r_i_glide_esite>  (170) 
0

>  <r_i_glide_emodel>  (170) 
-33.205

>  <r_i_glide_energy>  (170) 
-28.2621

>  <r_i_glide_einternal>  (170) 
0.565369

>  <r_i_glide_intrahb_reward>  (170) 
-0

>  <i_i_glide_confnum>  (170) 
1

>  <i_i_glide_posenum>  (170) 
34

>  <r_i_glide_eff_state_penalty>  (170) 
0

>  <ligand_id>  (170) 
59

>  <original_smiles>  (170) 
CC1=C2C3CCC14CC(CO4)C1(C)C(C)(C)CC(Cl)CC1(O)C(C)(C2O)C3(C)O

>  <smiles>  (170) 
[H]OC1([H])C2=C(C([H])([H])[H])C34OC([H])([H])C([H])(C3([H])[H])C3(C([H])([H])[H])C(O[H])(C([H])([H])C([H])(Cl)C([H])([H])C3(C([H])([H])[H])C([H])([H])[H])C1(C([H])([H])[H])C(O[H])(C([H])([H])[H])C2([H])C([H])([H])C4([H])[H]

$$$$
59:0:2
     RDKit          3D

 66 70  0  0  1  0  0  0  0  0999 V2000
    4.1667    0.7731    4.1553 C   0  0  0  0  0  0  0  0  0  0  0  0
    2.8921   -0.0731    4.2156 C   0  0  0  0  0  0  0  0  0  0  0  0
    2.6815   -0.9518    5.1848 C   0  0  0  0  0  0  0  0  0  0  0  0
    1.7834   -2.1384    4.9388 C   0  0  2  0  0  0  0  0  0  0  0  0
    1.6521   -2.4968    3.3937 C   0  0  0  0  0  0  0  0  0  0  0  0
    1.9751   -1.3494    2.3585 C   0  0  0  0  0  0  0  0  0  0  0  0
    1.8474   -0.0344    3.1202 C   0  0  2  0  0  0  0  0  0  0  0  0
    1.6349    1.3828    2.6153 C   0  0  0  0  0  0  0  0  0  0  0  0
    0.4299    1.8416    3.4818 C   0  0  1  0  0  0  0  0  0  0  0  0
   -0.4489    0.6899    3.1668 C   0  0  0  0  0  0  0  0  0  0  0  0
    0.4992   -0.2522    3.5795 O   0  0  0  0  0  0  0  0  0  0  0  0
    0.5034    2.2063    5.0735 C   0  0  1  0  0  0  0  0  0  0  0  0
    1.9056    2.8090    5.3585 C   0  0  0  0  0  0  0  0  0  0  0  0
   -0.4735    3.5207    5.1493 C   0  0  0  0  0  0  0  0  0  0  0  0
    0.0498    4.7586    4.3365 C   0  0  0  0  0  0  0  0  0  0  0  0
   -1.9223    3.2751    4.6230 C   0  0  0  0  0  0  0  0  0  0  0  0
   -0.5857    4.1252    6.5717 C   0  0  0  0  0  0  0  0  0  0  0  0
   -0.8547    3.1444    7.6855 C   0  0  1  0  0  0  0  0  0  0  0  0
   -2.5905    2.7232    7.8074 Cl  0  0  0  0  0  0  0  0  0  0  0  0
    0.0647    1.9203    7.6235 C   0  0  0  0  0  0  0  0  0  0  0  0
    0.1653    1.0592    6.2981 C   0  0  1  0  0  0  0  0  0  0  0  0
   -1.1711    0.6552    6.1511 O   0  0  0  0  0  0  0  0  0  0  0  0
    0.9033   -0.4338    6.6929 C   0  0  2  0  0  0  0  0  0  0  0  0
    0.5999   -0.7549    8.2077 C   0  0  0  0  0  0  0  0  0  0  0  0
    2.4723   -0.4454    6.5826 C   0  0  1  0  0  0  0  0  0  0  0  0
    3.1451   -1.3172    7.4772 O   0  0  0  0  0  0  0  0  0  0  0  0
    0.5543   -1.8037    5.8600 C   0  0  1  0  0  0  0  0  0  0  0  0
   -0.8790   -2.0569    5.3116 C   0  0  0  0  0  0  0  0  0  0  0  0
    0.5197   -2.9603    6.6932 O   0  0  0  0  0  0  0  0  0  0  0  0
    4.0221    1.8450    4.0348 H   0  0  0  0  0  0  0  0  0  0  0  0
    4.7650    0.4293    3.3096 H   0  0  0  0  0  0  0  0  0  0  0  0
    4.7571    0.6271    5.0614 H   0  0  0  0  0  0  0  0  0  0  0  0
    2.3545   -2.9688    5.3634 H   0  0  0  0  0  0  0  0  0  0  0  0
    2.3349   -3.3195    3.1796 H   0  0  0  0  0  0  0  0  0  0  0  0
    0.6611   -2.8994    3.1953 H   0  0  0  0  0  0  0  0  0  0  0  0
    2.9873   -1.4508    1.9643 H   0  0  0  0  0  0  0  0  0  0  0  0
    1.3035   -1.3988    1.5036 H   0  0  0  0  0  0  0  0  0  0  0  0
    2.4860    2.0572    2.6391 H   0  0  0  0  0  0  0  0  0  0  0  0
    1.3433    1.3493    1.5636 H   0  0  0  0  0  0  0  0  0  0  0  0
    0.0251    2.6545    2.8982 H   0  0  0  0  0  0  0  0  0  0  0  0
   -1.3935    0.6645    3.7034 H   0  0  0  0  0  0  0  0  0  0  0  0
   -0.6710    0.6020    2.1004 H   0  0  0  0  0  0  0  0  0  0  0  0
    1.9271    3.4945    6.1972 H   0  0  0  0  0  0  0  0  0  0  0  0
    2.3113    3.3509    4.5076 H   0  0  0  0  0  0  0  0  0  0  0  0
    2.6292    2.0783    5.6375 H   0  0  0  0  0  0  0  0  0  0  0  0
   -0.6584    5.5811    4.3899 H   0  0  0  0  0  0  0  0  0  0  0  0
    0.2194    4.6026    3.2747 H   0  0  0  0  0  0  0  0  0  0  0  0
    0.9811    5.1618    4.7341 H   0  0  0  0  0  0  0  0  0  0  0  0
   -2.5545    4.1439    4.8046 H   0  0  0  0  0  0  0  0  0  0  0  0
   -2.4244    2.4398    5.0964 H   0  0  0  0  0  0  0  0  0  0  0  0
   -1.9677    3.1069    3.5488 H   0  0  0  0  0  0  0  0  0  0  0  0
    0.3186    4.6772    6.8330 H   0  0  0  0  0  0  0  0  0  0  0  0
   -1.3614    4.8876    6.6027 H   0  0  0  0  0  0  0  0  0  0  0  0
   -0.6452    3.6614    8.6225 H   0  0  0  0  0  0  0  0  0  0  0  0
    1.0723    2.2259    7.9095 H   0  0  0  0  0  0  0  0  0  0  0  0
   -0.3370    1.3884    8.4755 H   0  0  0  0  0  0  0  0  0  0  0  0
   -1.2733    0.3610    5.2587 H   0  0  0  0  0  0  0  0  0  0  0  0
    0.9681   -1.7026    8.5918 H   0  0  0  0  0  0  0  0  0  0  0  0
   -0.4711   -0.7586    8.4059 H   0  0  0  0  0  0  0  0  0  0  0  0
    1.0916   -0.0543    8.8806 H   0  0  0  0  0  0  0  0  0  0  0  0
    2.9250    0.5158    6.7958 H   0  0  0  0  0  0  0  0  0  0  0  0
    2.9691   -2.2058    7.2138 H   0  0  0  0  0  0  0  0  0  0  0  0
   -1.2358   -1.3869    4.5444 H   0  0  0  0  0  0  0  0  0  0  0  0
   -1.6155   -2.0112    6.1125 H   0  0  0  0  0  0  0  0  0  0  0  0
   -0.9586   -3.0527    4.8771 H   0  0  0  0  0  0  0  0  0  0  0  0
    1.3634   -3.0915    7.0895 H   0  0  0  0  0  0  0  0  0  0  0  0
  1  2  1  0
  1 30  1  0
  1 31  1  0
  1 32  1  0
  2  7  1  0
  2  3  2  0
  3 25  1  0
  3  4  1  0
  4 27  1  0
  4  5  1  0
  4 33  1  1
  5  6  1  0
  5 34  1  0
  5 35  1  0
  6  7  1  0
  6 36  1  0
  6 37  1  0
  7 11  1  1
  7  8  1  0
  8  9  1  0
  8 38  1  0
  8 39  1  0
  9 10  1  0
  9 12  1  0
  9 40  1  6
 10 11  1  0
 10 41  1  0
 10 42  1  0
 12 21  1  0
 12 13  1  1
 12 14  1  0
 13 43  1  0
 13 44  1  0
 13 45  1  0
 14 15  1  0
 14 16  1  0
 14 17  1  0
 15 46  1  0
 15 47  1  0
 15 48  1  0
 16 49  1  0
 16 50  1  0
 16 51  1  0
 17 18  1  0
 17 52  1  0
 17 53  1  0
 18 19  1  0
 18 20  1  0
 18 54  1  1
 20 21  1  0
 20 55  1  0
 20 56  1  0
 21 22  1  6
 21 23  1  0
 22 57  1  0
 23 24  1  1
 23 25  1  0
 23 27  1  0
 24 58  1  0
 24 59  1  0
 24 60  1  0
 25 26  1  0
 25 61  1  6
 26 62  1  0
 27 28  1  0
 27 29  1  1
 28 63  1  0
 28 64  1  0
 28 65  1  0
 29 66  1  0
M  END
>  <i_m_ct_stereo_status>  (171) 
1

>  <s_m_source_file>  (171) 
/var/tmp/pbs.5076255.sched01/tmpl83nofxy/76c90atywu.sdf

>  <i_m_source_file_index>  (171) 
7

>  <i_lp_mmshare_version>  (171) 
48012

>  <i_f3d_flags>  (171) 
0

>  <s_epik_input>  (171) 
W0NIM11DKFtDQF0xMjMpPUM0W0NASF0oW0NIMl1bQ0gyXTEpW0NAQF0oW0NIM10pKFtPSF0pW0NAQF0oW0NIM10pKFtDQEhdNFtPSF0pW0NAXTUoW09IXSlbQ0BAXShbQ0gzXSkoW0NASF0oW0NIMl0yKVtDSDJdTzMpQyhbQ0gzXSkoW0NIM10pW0NIMl1bQ0BASF0oQ2wpW0NIMl01

>  <s_epik_cmdline>  (171) 
J2VwaWtfcHl0aG9uJywgJy1waHQnLCAnMi4wJywgJy1waCcsICc3LjAnLCAnLXRuJywgJzgnLCAnLW1hJywgJzIwMCcsICctaW1hZScsICc8aW5maWxlLm1hZT4nLCAnLW9tYWUnLCAnPG91dGZpbGUubWFlPic=

>  <r_lp_tautomer_probability>  (171) 
1

>  <r_epik_Ionization_Penalty>  (171) 
5.50975e-07

>  <r_epik_Ionization_Penalty_Charging>  (171) 
0

>  <r_epik_Ionization_Penalty_Neutral>  (171) 
5.50975e-07

>  <r_epik_State_Penalty>  (171) 
-0

>  <r_epik_Charging_Adjusted_Penalty>  (171) 
0

>  <i_epik_Tot_Q>  (171) 
0

>  <i_epik_Tot_abs_Q>  (171) 
0

>  <s_lp_Force_Field>  (171) 
OPLS3e

>  <r_lp_Energy>  (171) 
204.127

>  <b_lp_Chiralities_Consistent>  (171) 
1

>  <s_lp_Variant>  (171) 
59:0-1

>  <s_i_glide_gridfile>  (171) 
pfpi4k_grid

>  <i_i_glide_lignum>  (171) 
7

>  <i_i_glide_rotatable_bonds>  (171) 
3

>  <r_i_docking_score>  (171) 
-2.40661

>  <r_i_glide_ligand_efficiency>  (171) 
-0.0829867

>  <r_i_glide_ligand_efficiency_sa>  (171) 
-0.254961

>  <r_i_glide_ligand_efficiency_ln>  (171) 
-0.551054

>  <r_i_glide_gscore>  (171) 
-2.40661

>  <r_i_glide_lipo>  (171) 
-0.145952

>  <r_i_glide_hbond>  (171) 
0

>  <r_i_glide_metal>  (171) 
-0

>  <r_i_glide_rewards>  (171) 
-0.511358

>  <r_i_glide_evdw>  (171) 
-25.1953

>  <r_i_glide_ecoul>  (171) 
-3.26359

>  <r_i_glide_erotb>  (171) 
0

>  <r_i_glide_esite>  (171) 
0

>  <r_i_glide_emodel>  (171) 
-33.3457

>  <r_i_glide_energy>  (171) 
-28.4589

>  <r_i_glide_einternal>  (171) 
0.257505

>  <r_i_glide_intrahb_reward>  (171) 
-0

>  <i_i_glide_confnum>  (171) 
2

>  <i_i_glide_posenum>  (171) 
11

>  <r_i_glide_eff_state_penalty>  (171) 
0

>  <ligand_id>  (171) 
59

>  <original_smiles>  (171) 
CC1=C2C3CCC14CC(CO4)C1(C)C(C)(C)CC(Cl)CC1(O)C(C)(C2O)C3(C)O

>  <smiles>  (171) 
[H]OC1([H])C2=C(C([H])([H])[H])C34OC([H])([H])C([H])(C3([H])[H])C3(C([H])([H])[H])C(O[H])(C([H])([H])C([H])(Cl)C([H])([H])C3(C([H])([H])[H])C([H])([H])[H])C1(C([H])([H])[H])C(O[H])(C([H])([H])[H])C2([H])C([H])([H])C4([H])[H]

$$$$
59:1:0
     RDKit          3D

 66 70  0  0  1  0  0  0  0  0999 V2000
    4.2405    0.5654    4.1720 C   0  0  0  0  0  0  0  0  0  0  0  0
    2.9418   -0.2388    4.1335 C   0  0  0  0  0  0  0  0  0  0  0  0
    2.4913   -0.9146    5.1781 C   0  0  0  0  0  0  0  0  0  0  0  0
    1.4738   -1.9885    4.9976 C   0  0  2  0  0  0  0  0  0  0  0  0
    1.3809   -2.5003    3.4783 C   0  0  0  0  0  0  0  0  0  0  0  0
    1.9447   -1.5360    2.3256 C   0  0  0  0  0  0  0  0  0  0  0  0
    1.9739   -0.1408    2.9395 C   0  0  2  0  0  0  0  0  0  0  0  0
    1.8949    1.3606    2.5206 C   0  0  0  0  0  0  0  0  0  0  0  0
    0.8053    1.8578    3.5529 C   0  0  2  0  0  0  0  0  0  0  0  0
   -0.2618    0.9488    3.0735 C   0  0  0  0  0  0  0  0  0  0  0  0
    0.5179   -0.2395    3.1703 O   0  0  0  0  0  0  0  0  0  0  0  0
    0.7625    2.5131    5.0075 C   0  0  1  0  0  0  0  0  0  0  0  0
    2.2032    3.0460    5.3372 C   0  0  0  0  0  0  0  0  0  0  0  0
   -0.1333    3.8443    4.8438 C   0  0  0  0  0  0  0  0  0  0  0  0
    0.5085    4.8581    3.8494 C   0  0  0  0  0  0  0  0  0  0  0  0
   -1.5599    3.6171    4.2626 C   0  0  0  0  0  0  0  0  0  0  0  0
   -0.2554    4.6179    6.1812 C   0  0  0  0  0  0  0  0  0  0  0  0
   -0.6071    3.7757    7.4059 C   0  0  1  0  0  0  0  0  0  0  0  0
   -2.3744    3.5165    7.5441 Cl  0  0  0  0  0  0  0  0  0  0  0  0
    0.1860    2.4558    7.5230 C   0  0  0  0  0  0  0  0  0  0  0  0
    0.2488    1.4971    6.2712 C   0  0  1  0  0  0  0  0  0  0  0  0
   -1.1111    1.2099    6.0889 O   0  0  0  0  0  0  0  0  0  0  0  0
    0.8129   -0.0634    6.6789 C   0  0  2  0  0  0  0  0  0  0  0  0
    0.4873   -0.2633    8.2086 C   0  0  0  0  0  0  0  0  0  0  0  0
    2.3666   -0.2925    6.5411 C   0  0  1  0  0  0  0  0  0  0  0  0
    2.9166   -1.2113    7.4700 O   0  0  0  0  0  0  0  0  0  0  0  0
    0.2936   -1.4166    5.8766 C   0  0  1  0  0  0  0  0  0  0  0  0
   -1.1398   -1.5317    5.2993 C   0  0  0  0  0  0  0  0  0  0  0  0
    0.1219   -2.4925    6.7953 O   0  0  0  0  0  0  0  0  0  0  0  0
    4.8996    0.1961    3.3841 H   0  0  0  0  0  0  0  0  0  0  0  0
    4.7523    0.4118    5.1220 H   0  0  0  0  0  0  0  0  0  0  0  0
    4.1393    1.6384    4.0407 H   0  0  0  0  0  0  0  0  0  0  0  0
    1.9377   -2.8308    5.5211 H   0  0  0  0  0  0  0  0  0  0  0  0
    1.9349   -3.4373    3.4076 H   0  0  0  0  0  0  0  0  0  0  0  0
    0.3474   -2.7724    3.2670 H   0  0  0  0  0  0  0  0  0  0  0  0
    2.9538   -1.8314    2.0384 H   0  0  0  0  0  0  0  0  0  0  0  0
    1.3329   -1.5917    1.4248 H   0  0  0  0  0  0  0  0  0  0  0  0
    2.8160    1.9323    2.5141 H   0  0  0  0  0  0  0  0  0  0  0  0
    1.5312    1.4396    1.4944 H   0  0  0  0  0  0  0  0  0  0  0  0
    1.2118    1.2733    4.3362 H   0  0  0  0  0  0  0  0  0  0  0  0
   -1.1755    0.9632    3.6551 H   0  0  0  0  0  0  0  0  0  0  0  0
   -0.5505    1.1484    2.0381 H   0  0  0  0  0  0  0  0  0  0  0  0
    2.2325    3.7633    6.1510 H   0  0  0  0  0  0  0  0  0  0  0  0
    2.6789    3.5156    4.4768 H   0  0  0  0  0  0  0  0  0  0  0  0
    2.8833    2.2755    5.6447 H   0  0  0  0  0  0  0  0  0  0  0  0
   -0.1577    5.6981    3.6499 H   0  0  0  0  0  0  0  0  0  0  0  0
    0.7410    4.4074    2.8835 H   0  0  0  0  0  0  0  0  0  0  0  0
    1.4265    5.3049    4.2318 H   0  0  0  0  0  0  0  0  0  0  0  0
   -2.1162    4.5496    4.2266 H   0  0  0  0  0  0  0  0  0  0  0  0
   -2.1819    2.9409    4.8379 H   0  0  0  0  0  0  0  0  0  0  0  0
   -1.5327    3.2609    3.2338 H   0  0  0  0  0  0  0  0  0  0  0  0
    0.6711    5.1487    6.3978 H   0  0  0  0  0  0  0  0  0  0  0  0
   -0.9862    5.4159    6.0839 H   0  0  0  0  0  0  0  0  0  0  0  0
   -0.3674    4.3755    8.2841 H   0  0  0  0  0  0  0  0  0  0  0  0
    1.2040    2.6866    7.8380 H   0  0  0  0  0  0  0  0  0  0  0  0
   -0.2892    2.0066    8.3894 H   0  0  0  0  0  0  0  0  0  0  0  0
   -1.2231    0.8952    5.2056 H   0  0  0  0  0  0  0  0  0  0  0  0
    0.7650   -1.2225    8.6406 H   0  0  0  0  0  0  0  0  0  0  0  0
   -0.5774   -0.1505    8.4082 H   0  0  0  0  0  0  0  0  0  0  0  0
    1.0482    0.4294    8.8340 H   0  0  0  0  0  0  0  0  0  0  0  0
    2.9550    0.6031    6.6915 H   0  0  0  0  0  0  0  0  0  0  0  0
    3.8494   -1.2527    7.3288 H   0  0  0  0  0  0  0  0  0  0  0  0
   -1.3470   -0.9331    4.4321 H   0  0  0  0  0  0  0  0  0  0  0  0
   -1.8941   -1.2820    6.0437 H   0  0  0  0  0  0  0  0  0  0  0  0
   -1.3485   -2.5506    4.9744 H   0  0  0  0  0  0  0  0  0  0  0  0
    0.9665   -2.6811    7.1792 H   0  0  0  0  0  0  0  0  0  0  0  0
  1  2  1  0
  1 30  1  0
  1 31  1  0
  1 32  1  0
  2  7  1  0
  2  3  2  0
  3 25  1  0
  3  4  1  0
  4 27  1  0
  4  5  1  0
  4 33  1  1
  5  6  1  0
  5 34  1  0
  5 35  1  0
  6  7  1  0
  6 36  1  0
  6 37  1  0
  7 11  1  1
  7  8  1  0
  8  9  1  0
  8 38  1  0
  8 39  1  0
  9 10  1  0
  9 12  1  0
  9 40  1  6
 10 11  1  0
 10 41  1  0
 10 42  1  0
 12 21  1  0
 12 13  1  1
 12 14  1  0
 13 43  1  0
 13 44  1  0
 13 45  1  0
 14 15  1  0
 14 16  1  0
 14 17  1  0
 15 46  1  0
 15 47  1  0
 15 48  1  0
 16 49  1  0
 16 50  1  0
 16 51  1  0
 17 18  1  0
 17 52  1  0
 17 53  1  0
 18 19  1  0
 18 20  1  0
 18 54  1  1
 20 21  1  0
 20 55  1  0
 20 56  1  0
 21 22  1  6
 21 23  1  0
 22 57  1  0
 23 24  1  1
 23 25  1  0
 23 27  1  0
 24 58  1  0
 24 59  1  0
 24 60  1  0
 25 26  1  0
 25 61  1  6
 26 62  1  0
 27 28  1  0
 27 29  1  1
 28 63  1  0
 28 64  1  0
 28 65  1  0
 29 66  1  0
M  END
>  <i_m_ct_stereo_status>  (172) 
1

>  <s_m_source_file>  (172) 
/var/tmp/pbs.5076255.sched01/tmpl83nofxy/76c90atywu.sdf

>  <i_m_source_file_index>  (172) 
8

>  <i_lp_mmshare_version>  (172) 
48012

>  <i_f3d_flags>  (172) 
0

>  <s_epik_input>  (172) 
W0NIM11DKFtDQF0xMjMpPUM0W0NASF0oW0NIMl1bQ0gyXTEpW0NAQF0oW0NIM10pKFtPSF0pW0NAQF0oW0NIM10pKFtDQEhdNFtPSF0pW0NAXTUoW09IXSlbQ0BAXShbQ0gzXSkoW0NASF0oW0NIMl0yKVtDSDJdTzMpQyhbQ0gzXSkoW0NIM10pW0NIMl1bQ0BASF0oQ2wpW0NIMl01

>  <s_epik_cmdline>  (172) 
J2VwaWtfcHl0aG9uJywgJy1waHQnLCAnMi4wJywgJy1waCcsICc3LjAnLCAnLXRuJywgJzgnLCAnLW1hJywgJzIwMCcsICctaW1hZScsICc8aW5maWxlLm1hZT4nLCAnLW9tYWUnLCAnPG91dGZpbGUubWFlPic=

>  <r_lp_tautomer_probability>  (172) 
1

>  <r_epik_Ionization_Penalty>  (172) 
5.50975e-07

>  <r_epik_Ionization_Penalty_Charging>  (172) 
0

>  <r_epik_Ionization_Penalty_Neutral>  (172) 
5.50975e-07

>  <r_epik_State_Penalty>  (172) 
-0

>  <r_epik_Charging_Adjusted_Penalty>  (172) 
0

>  <i_epik_Tot_Q>  (172) 
0

>  <i_epik_Tot_abs_Q>  (172) 
0

>  <s_lp_Force_Field>  (172) 
OPLS3e

>  <r_lp_Energy>  (172) 
262.49

>  <b_lp_Chiralities_Consistent>  (172) 
1

>  <s_lp_Variant>  (172) 
59:0-2

>  <s_i_glide_gridfile>  (172) 
pfpi4k_grid

>  <i_i_glide_lignum>  (172) 
8

>  <i_i_glide_rotatable_bonds>  (172) 
3

>  <r_i_docking_score>  (172) 
-2.83769

>  <r_i_glide_ligand_efficiency>  (172) 
-0.0978514

>  <r_i_glide_ligand_efficiency_sa>  (172) 
-0.30063

>  <r_i_glide_ligand_efficiency_ln>  (172) 
-0.649759

>  <r_i_glide_gscore>  (172) 
-2.83769

>  <r_i_glide_lipo>  (172) 
-0.156215

>  <r_i_glide_hbond>  (172) 
0

>  <r_i_glide_metal>  (172) 
-0

>  <r_i_glide_rewards>  (172) 
-1.01136

>  <r_i_glide_evdw>  (172) 
-25.4784

>  <r_i_glide_ecoul>  (172) 
-2.64132

>  <r_i_glide_erotb>  (172) 
0

>  <r_i_glide_esite>  (172) 
0

>  <r_i_glide_emodel>  (172) 
-38.4448

>  <r_i_glide_energy>  (172) 
-28.1197

>  <r_i_glide_einternal>  (172) 
0.559961

>  <r_i_glide_intrahb_reward>  (172) 
-0.5

>  <i_i_glide_confnum>  (172) 
1

>  <i_i_glide_posenum>  (172) 
7

>  <r_i_glide_eff_state_penalty>  (172) 
0

>  <ligand_id>  (172) 
59

>  <original_smiles>  (172) 
CC1=C2C3CCC14CC(CO4)C1(C)C(C)(C)CC(Cl)CC1(O)C(C)(C2O)C3(C)O

>  <smiles>  (172) 
[H]OC1([H])C2=C(C([H])([H])[H])C34OC([H])([H])C([H])(C3([H])[H])C3(C([H])([H])[H])C(O[H])(C([H])([H])C([H])(Cl)C([H])([H])C3(C([H])([H])[H])C([H])([H])[H])C1(C([H])([H])[H])C(O[H])(C([H])([H])[H])C2([H])C([H])([H])C4([H])[H]

$$$$
59:1:1
     RDKit          3D

 66 70  0  0  1  0  0  0  0  0999 V2000
    1.4238    2.4033    8.3794 C   0  0  0  0  0  0  0  0  0  0  0  0
    0.3624    2.3849    7.2840 C   0  0  0  0  0  0  0  0  0  0  0  0
    0.3574    3.2377    6.2737 C   0  0  0  0  0  0  0  0  0  0  0  0
   -0.8727    3.4551    5.4611 C   0  0  2  0  0  0  0  0  0  0  0  0
   -2.1966    2.9331    6.2132 C   0  0  0  0  0  0  0  0  0  0  0  0
   -2.0173    1.8623    7.3973 C   0  0  0  0  0  0  0  0  0  0  0  0
   -0.6473    1.2293    7.1754 C   0  0  2  0  0  0  0  0  0  0  0  0
    0.1367   -0.0962    7.4347 C   0  0  0  0  0  0  0  0  0  0  0  0
    0.7108   -0.3433    5.9846 C   0  0  2  0  0  0  0  0  0  0  0  0
   -0.6025   -0.4375    5.3146 C   0  0  0  0  0  0  0  0  0  0  0  0
   -1.1263    0.7769    5.8528 O   0  0  0  0  0  0  0  0  0  0  0  0
    2.0427   -0.0248    5.1745 C   0  0  1  0  0  0  0  0  0  0  0  0
    3.1428    0.4133    6.2090 C   0  0  0  0  0  0  0  0  0  0  0  0
    2.5585   -1.4493    4.6170 C   0  0  0  0  0  0  0  0  0  0  0  0
    2.8965   -2.4392    5.7727 C   0  0  0  0  0  0  0  0  0  0  0  0
    1.5326   -2.2425    3.7540 C   0  0  0  0  0  0  0  0  0  0  0  0
    3.8809   -1.3120    3.8219 C   0  0  0  0  0  0  0  0  0  0  0  0
    3.9085   -0.1874    2.7966 C   0  0  1  0  0  0  0  0  0  0  0  0
    3.1725   -0.7040    1.2553 Cl  0  0  0  0  0  0  0  0  0  0  0  0
    3.3269    1.1538    3.2944 C   0  0  0  0  0  0  0  0  0  0  0  0
    1.9062    1.1691    3.9726 C   0  0  1  0  0  0  0  0  0  0  0  0
    1.1139    0.6704    2.9283 O   0  0  0  0  0  0  0  0  0  0  0  0
    1.2676    2.7545    4.1007 C   0  0  2  0  0  0  0  0  0  0  0  0
    1.9552    3.5986    2.9655 C   0  0  0  0  0  0  0  0  0  0  0  0
    1.5875    3.5202    5.4510 C   0  0  1  0  0  0  0  0  0  0  0  0
    1.7074    4.9309    5.3550 O   0  0  0  0  0  0  0  0  0  0  0  0
   -0.3672    3.0448    4.0172 C   0  0  1  0  0  0  0  0  0  0  0  0
   -1.3235    2.1681    3.1718 C   0  0  0  0  0  0  0  0  0  0  0  0
   -0.6339    4.2437    3.2824 O   0  0  0  0  0  0  0  0  0  0  0  0
    0.9217    2.5187    9.3402 H   0  0  0  0  0  0  0  0  0  0  0  0
    2.0821    3.2655    8.2554 H   0  0  0  0  0  0  0  0  0  0  0  0
    2.0643    1.5299    8.4490 H   0  0  0  0  0  0  0  0  0  0  0  0
   -0.9713    4.5423    5.4874 H   0  0  0  0  0  0  0  0  0  0  0  0
   -2.6942    3.7914    6.6555 H   0  0  0  0  0  0  0  0  0  0  0  0
   -2.9044    2.5574    5.4763 H   0  0  0  0  0  0  0  0  0  0  0  0
   -2.0432    2.3531    8.3710 H   0  0  0  0  0  0  0  0  0  0  0  0
   -2.8380    1.1461    7.3855 H   0  0  0  0  0  0  0  0  0  0  0  0
    0.8763   -0.1012    8.2292 H   0  0  0  0  0  0  0  0  0  0  0  0
   -0.5521   -0.8937    7.7098 H   0  0  0  0  0  0  0  0  0  0  0  0
    0.9144    0.6828    5.8296 H   0  0  0  0  0  0  0  0  0  0  0  0
   -0.5635   -0.4996    4.2362 H   0  0  0  0  0  0  0  0  0  0  0  0
   -1.1882   -1.2931    5.6566 H   0  0  0  0  0  0  0  0  0  0  0  0
    4.1562    0.3712    5.8212 H   0  0  0  0  0  0  0  0  0  0  0  0
    3.1296   -0.1879    7.1181 H   0  0  0  0  0  0  0  0  0  0  0  0
    3.0372    1.4271    6.5425 H   0  0  0  0  0  0  0  0  0  0  0  0
    3.1355   -3.4299    5.3851 H   0  0  0  0  0  0  0  0  0  0  0  0
    2.0747   -2.5588    6.4782 H   0  0  0  0  0  0  0  0  0  0  0  0
    3.7773   -2.1367    6.3395 H   0  0  0  0  0  0  0  0  0  0  0  0
    1.9738   -3.1665    3.3800 H   0  0  0  0  0  0  0  0  0  0  0  0
    1.1759   -1.7225    2.8713 H   0  0  0  0  0  0  0  0  0  0  0  0
    0.6586   -2.5462    4.3277 H   0  0  0  0  0  0  0  0  0  0  0  0
    4.7269   -1.1665    4.4934 H   0  0  0  0  0  0  0  0  0  0  0  0
    4.1139   -2.2451    3.3154 H   0  0  0  0  0  0  0  0  0  0  0  0
    4.9503   -0.0159    2.5288 H   0  0  0  0  0  0  0  0  0  0  0  0
    4.0463    1.6155    3.9673 H   0  0  0  0  0  0  0  0  0  0  0  0
    3.3619    1.7376    2.3808 H   0  0  0  0  0  0  0  0  0  0  0  0
    1.5643   -0.0628    2.5328 H   0  0  0  0  0  0  0  0  0  0  0  0
    1.6329    4.6350    2.8770 H   0  0  0  0  0  0  0  0  0  0  0  0
    1.7820    3.1625    1.9824 H   0  0  0  0  0  0  0  0  0  0  0  0
    3.0299    3.7020    3.1164 H   0  0  0  0  0  0  0  0  0  0  0  0
    2.5242    3.2177    5.8914 H   0  0  0  0  0  0  0  0  0  0  0  0
    2.1205    5.1374    4.5283 H   0  0  0  0  0  0  0  0  0  0  0  0
   -1.4927    1.1714    3.5391 H   0  0  0  0  0  0  0  0  0  0  0  0
   -0.9672    2.0670    2.1458 H   0  0  0  0  0  0  0  0  0  0  0  0
   -2.3254    2.6030    3.1147 H   0  0  0  0  0  0  0  0  0  0  0  0
   -0.3209    4.1458    2.3714 H   0  0  0  0  0  0  0  0  0  0  0  0
  1  2  1  0
  1 30  1  0
  1 31  1  0
  1 32  1  0
  2  7  1  0
  2  3  2  0
  3 25  1  0
  3  4  1  0
  4 27  1  0
  4  5  1  0
  4 33  1  6
  5  6  1  0
  5 34  1  0
  5 35  1  0
  6  7  1  0
  6 36  1  0
  6 37  1  0
  7 11  1  6
  7  8  1  0
  8  9  1  0
  8 38  1  0
  8 39  1  0
  9 10  1  0
  9 12  1  0
  9 40  1  1
 10 11  1  0
 10 41  1  0
 10 42  1  0
 12 21  1  0
 12 13  1  1
 12 14  1  0
 13 43  1  0
 13 44  1  0
 13 45  1  0
 14 15  1  0
 14 16  1  0
 14 17  1  0
 15 46  1  0
 15 47  1  0
 15 48  1  0
 16 49  1  0
 16 50  1  0
 16 51  1  0
 17 18  1  0
 17 52  1  0
 17 53  1  0
 18 19  1  0
 18 20  1  0
 18 54  1  6
 20 21  1  0
 20 55  1  0
 20 56  1  0
 21 22  1  6
 21 23  1  0
 22 57  1  0
 23 24  1  6
 23 25  1  0
 23 27  1  0
 24 58  1  0
 24 59  1  0
 24 60  1  0
 25 26  1  0
 25 61  1  1
 26 62  1  0
 27 28  1  0
 27 29  1  6
 28 63  1  0
 28 64  1  0
 28 65  1  0
 29 66  1  0
M  END
>  <i_m_ct_stereo_status>  (173) 
1

>  <s_m_source_file>  (173) 
/var/tmp/pbs.5076255.sched01/tmpl83nofxy/76c90atywu.sdf

>  <i_m_source_file_index>  (173) 
8

>  <i_lp_mmshare_version>  (173) 
48012

>  <i_f3d_flags>  (173) 
0

>  <s_epik_input>  (173) 
W0NIM11DKFtDQF0xMjMpPUM0W0NASF0oW0NIMl1bQ0gyXTEpW0NAQF0oW0NIM10pKFtPSF0pW0NAQF0oW0NIM10pKFtDQEhdNFtPSF0pW0NAXTUoW09IXSlbQ0BAXShbQ0gzXSkoW0NASF0oW0NIMl0yKVtDSDJdTzMpQyhbQ0gzXSkoW0NIM10pW0NIMl1bQ0BASF0oQ2wpW0NIMl01

>  <s_epik_cmdline>  (173) 
J2VwaWtfcHl0aG9uJywgJy1waHQnLCAnMi4wJywgJy1waCcsICc3LjAnLCAnLXRuJywgJzgnLCAnLW1hJywgJzIwMCcsICctaW1hZScsICc8aW5maWxlLm1hZT4nLCAnLW9tYWUnLCAnPG91dGZpbGUubWFlPic=

>  <r_lp_tautomer_probability>  (173) 
1

>  <r_epik_Ionization_Penalty>  (173) 
5.50975e-07

>  <r_epik_Ionization_Penalty_Charging>  (173) 
0

>  <r_epik_Ionization_Penalty_Neutral>  (173) 
5.50975e-07

>  <r_epik_State_Penalty>  (173) 
-0

>  <r_epik_Charging_Adjusted_Penalty>  (173) 
0

>  <i_epik_Tot_Q>  (173) 
0

>  <i_epik_Tot_abs_Q>  (173) 
0

>  <s_lp_Force_Field>  (173) 
OPLS3e

>  <r_lp_Energy>  (173) 
262.49

>  <b_lp_Chiralities_Consistent>  (173) 
1

>  <s_lp_Variant>  (173) 
59:0-2

>  <s_i_glide_gridfile>  (173) 
pfpi4k_grid

>  <i_i_glide_lignum>  (173) 
8

>  <i_i_glide_rotatable_bonds>  (173) 
3

>  <r_i_docking_score>  (173) 
-2.61648

>  <r_i_glide_ligand_efficiency>  (173) 
-0.0902234

>  <r_i_glide_ligand_efficiency_sa>  (173) 
-0.277195

>  <r_i_glide_ligand_efficiency_ln>  (173) 
-0.599107

>  <r_i_glide_gscore>  (173) 
-2.61648

>  <r_i_glide_lipo>  (173) 
-0.137623

>  <r_i_glide_hbond>  (173) 
0

>  <r_i_glide_metal>  (173) 
-0

>  <r_i_glide_rewards>  (173) 
-0.511358

>  <r_i_glide_evdw>  (173) 
-23.8107

>  <r_i_glide_ecoul>  (173) 
-5.17975

>  <r_i_glide_erotb>  (173) 
0

>  <r_i_glide_esite>  (173) 
0

>  <r_i_glide_emodel>  (173) 
-33.7184

>  <r_i_glide_energy>  (173) 
-28.9905

>  <r_i_glide_einternal>  (173) 
0.782766

>  <r_i_glide_intrahb_reward>  (173) 
-0

>  <i_i_glide_confnum>  (173) 
1

>  <i_i_glide_posenum>  (173) 
31

>  <r_i_glide_eff_state_penalty>  (173) 
0

>  <ligand_id>  (173) 
59

>  <original_smiles>  (173) 
CC1=C2C3CCC14CC(CO4)C1(C)C(C)(C)CC(Cl)CC1(O)C(C)(C2O)C3(C)O

>  <smiles>  (173) 
[H]OC1([H])C2=C(C([H])([H])[H])C34OC([H])([H])C([H])(C3([H])[H])C3(C([H])([H])[H])C(O[H])(C([H])([H])C([H])(Cl)C([H])([H])C3(C([H])([H])[H])C([H])([H])[H])C1(C([H])([H])[H])C(O[H])(C([H])([H])[H])C2([H])C([H])([H])C4([H])[H]

$$$$
59:1:2
     RDKit          3D

 66 70  0  0  1  0  0  0  0  0999 V2000
    1.4566    2.5641    8.3793 C   0  0  0  0  0  0  0  0  0  0  0  0
    0.3749    2.5229    7.3059 C   0  0  0  0  0  0  0  0  0  0  0  0
    0.3450    3.3678    6.2781 C   0  0  0  0  0  0  0  0  0  0  0  0
   -0.9072    3.5429    5.4869 C   0  0  2  0  0  0  0  0  0  0  0  0
   -2.2099    3.0438    6.2840 C   0  0  0  0  0  0  0  0  0  0  0  0
   -2.0045    2.0105    7.4912 C   0  0  0  0  0  0  0  0  0  0  0  0
   -0.6429    1.3723    7.2508 C   0  0  2  0  0  0  0  0  0  0  0  0
    0.1416    0.0546    7.5332 C   0  0  0  0  0  0  0  0  0  0  0  0
    0.6804   -0.2376    6.0777 C   0  0  2  0  0  0  0  0  0  0  0  0
   -0.6474   -0.3477    5.4415 C   0  0  0  0  0  0  0  0  0  0  0  0
   -1.1535    0.8803    5.9543 O   0  0  0  0  0  0  0  0  0  0  0  0
    1.9925    0.0503    5.2280 C   0  0  1  0  0  0  0  0  0  0  0  0
    3.1135    0.5064    6.2279 C   0  0  0  0  0  0  0  0  0  0  0  0
    2.4939   -1.3928    4.7019 C   0  0  0  0  0  0  0  0  0  0  0  0
    2.8485   -2.3516    5.8736 C   0  0  0  0  0  0  0  0  0  0  0  0
    1.4481   -2.2046    3.8862 C   0  0  0  0  0  0  0  0  0  0  0  0
    3.7977   -1.2801    3.8734 C   0  0  0  0  0  0  0  0  0  0  0  0
    3.8017   -0.1854    2.8172 C   0  0  1  0  0  0  0  0  0  0  0  0
    3.0511   -0.7438    1.2960 Cl  0  0  0  0  0  0  0  0  0  0  0  0
    3.2310    1.1680    3.2864 C   0  0  0  0  0  0  0  0  0  0  0  0
    1.8305    1.2118    3.9965 C   0  0  1  0  0  0  0  0  0  0  0  0
    1.0027    0.6781    2.9972 O   0  0  0  0  0  0  0  0  0  0  0  0
    1.2028    2.7939    4.1035 C   0  0  2  0  0  0  0  0  0  0  0  0
    1.8761    3.6076    2.9321 C   0  0  0  0  0  0  0  0  0  0  0  0
    1.5553    3.5924    5.4257 C   0  0  1  0  0  0  0  0  0  0  0  0
    1.6846    4.9900    5.2809 O   0  0  0  0  0  0  0  0  0  0  0  0
   -0.4271    3.0932    4.0471 C   0  0  1  0  0  0  0  0  0  0  0  0
   -1.4066    2.1991    3.2424 C   0  0  0  0  0  0  0  0  0  0  0  0
   -0.7045    4.2780    3.2930 O   0  0  0  0  0  0  0  0  0  0  0  0
    0.9757    2.7025    9.3514 H   0  0  0  0  0  0  0  0  0  0  0  0
    2.1122    3.4190    8.2221 H   0  0  0  0  0  0  0  0  0  0  0  0
    2.0989    1.6886    8.4574 H   0  0  0  0  0  0  0  0  0  0  0  0
   -0.9958    4.6292    5.4882 H   0  0  0  0  0  0  0  0  0  0  0  0
   -2.6901    3.9180    6.7112 H   0  0  0  0  0  0  0  0  0  0  0  0
   -2.9334    2.6558    5.5697 H   0  0  0  0  0  0  0  0  0  0  0  0
   -2.0050    2.5314    8.4494 H   0  0  0  0  0  0  0  0  0  0  0  0
   -2.8301    1.2979    7.5198 H   0  0  0  0  0  0  0  0  0  0  0  0
    0.8945    0.0626    8.3125 H   0  0  0  0  0  0  0  0  0  0  0  0
   -0.5447   -0.7331    7.8464 H   0  0  0  0  0  0  0  0  0  0  0  0
    0.8764    0.7852    5.8886 H   0  0  0  0  0  0  0  0  0  0  0  0
   -0.6350   -0.4448    4.3622 H   0  0  0  0  0  0  0  0  0  0  0  0
   -1.2255   -1.1927    5.8233 H   0  0  0  0  0  0  0  0  0  0  0  0
    4.1164    0.4509    5.8213 H   0  0  0  0  0  0  0  0  0  0  0  0
    3.1168   -0.0715    7.1533 H   0  0  0  0  0  0  0  0  0  0  0  0
    3.0201    1.5284    6.5383 H   0  0  0  0  0  0  0  0  0  0  0  0
    3.0750   -3.3554    5.5058 H   0  0  0  0  0  0  0  0  0  0  0  0
    2.0403   -2.4514    6.5998 H   0  0  0  0  0  0  0  0  0  0  0  0
    3.7419   -2.0421    6.4139 H   0  0  0  0  0  0  0  0  0  0  0  0
    1.8767   -3.1405    3.5249 H   0  0  0  0  0  0  0  0  0  0  0  0
    1.0808   -1.7027    3.0009 H   0  0  0  0  0  0  0  0  0  0  0  0
    0.5829   -2.4898    4.4846 H   0  0  0  0  0  0  0  0  0  0  0  0
    4.6586   -1.1258    4.5241 H   0  0  0  0  0  0  0  0  0  0  0  0
    4.0091   -2.2288    3.3856 H   0  0  0  0  0  0  0  0  0  0  0  0
    4.8377   -0.0263    2.5250 H   0  0  0  0  0  0  0  0  0  0  0  0
    3.9705    1.6434    3.9328 H   0  0  0  0  0  0  0  0  0  0  0  0
    3.2567    1.7243    2.3566 H   0  0  0  0  0  0  0  0  0  0  0  0
    1.0292    1.2524    2.2423 H   0  0  0  0  0  0  0  0  0  0  0  0
    1.5525    4.6382    2.8175 H   0  0  0  0  0  0  0  0  0  0  0  0
    1.6818    3.1374    1.9691 H   0  0  0  0  0  0  0  0  0  0  0  0
    2.9517    3.7094    3.0590 H   0  0  0  0  0  0  0  0  0  0  0  0
    2.5099    3.3031    5.8598 H   0  0  0  0  0  0  0  0  0  0  0  0
    1.9636    5.1864    4.3966 H   0  0  0  0  0  0  0  0  0  0  0  0
   -1.5738    1.2144    3.6366 H   0  0  0  0  0  0  0  0  0  0  0  0
   -1.0743    2.0766    2.2121 H   0  0  0  0  0  0  0  0  0  0  0  0
   -2.4017    2.6423    3.1989 H   0  0  0  0  0  0  0  0  0  0  0  0
   -0.4049    4.1733    2.3733 H   0  0  0  0  0  0  0  0  0  0  0  0
  1  2  1  0
  1 30  1  0
  1 31  1  0
  1 32  1  0
  2  7  1  0
  2  3  2  0
  3 25  1  0
  3  4  1  0
  4 27  1  0
  4  5  1  0
  4 33  1  6
  5  6  1  0
  5 34  1  0
  5 35  1  0
  6  7  1  0
  6 36  1  0
  6 37  1  0
  7 11  1  6
  7  8  1  0
  8  9  1  0
  8 38  1  0
  8 39  1  0
  9 10  1  0
  9 12  1  0
  9 40  1  1
 10 11  1  0
 10 41  1  0
 10 42  1  0
 12 21  1  0
 12 13  1  1
 12 14  1  0
 13 43  1  0
 13 44  1  0
 13 45  1  0
 14 15  1  0
 14 16  1  0
 14 17  1  0
 15 46  1  0
 15 47  1  0
 15 48  1  0
 16 49  1  0
 16 50  1  0
 16 51  1  0
 17 18  1  0
 17 52  1  0
 17 53  1  0
 18 19  1  0
 18 20  1  0
 18 54  1  6
 20 21  1  0
 20 55  1  0
 20 56  1  0
 21 22  1  6
 21 23  1  0
 22 57  1  0
 23 24  1  6
 23 25  1  0
 23 27  1  0
 24 58  1  0
 24 59  1  0
 24 60  1  0
 25 26  1  0
 25 61  1  1
 26 62  1  0
 27 28  1  0
 27 29  1  6
 28 63  1  0
 28 64  1  0
 28 65  1  0
 29 66  1  0
M  END
>  <i_m_ct_stereo_status>  (174) 
1

>  <s_m_source_file>  (174) 
/var/tmp/pbs.5076255.sched01/tmpl83nofxy/76c90atywu.sdf

>  <i_m_source_file_index>  (174) 
8

>  <i_lp_mmshare_version>  (174) 
48012

>  <i_f3d_flags>  (174) 
0

>  <s_epik_input>  (174) 
W0NIM11DKFtDQF0xMjMpPUM0W0NASF0oW0NIMl1bQ0gyXTEpW0NAQF0oW0NIM10pKFtPSF0pW0NAQF0oW0NIM10pKFtDQEhdNFtPSF0pW0NAXTUoW09IXSlbQ0BAXShbQ0gzXSkoW0NASF0oW0NIMl0yKVtDSDJdTzMpQyhbQ0gzXSkoW0NIM10pW0NIMl1bQ0BASF0oQ2wpW0NIMl01

>  <s_epik_cmdline>  (174) 
J2VwaWtfcHl0aG9uJywgJy1waHQnLCAnMi4wJywgJy1waCcsICc3LjAnLCAnLXRuJywgJzgnLCAnLW1hJywgJzIwMCcsICctaW1hZScsICc8aW5maWxlLm1hZT4nLCAnLW9tYWUnLCAnPG91dGZpbGUubWFlPic=

>  <r_lp_tautomer_probability>  (174) 
1

>  <r_epik_Ionization_Penalty>  (174) 
5.50975e-07

>  <r_epik_Ionization_Penalty_Charging>  (174) 
0

>  <r_epik_Ionization_Penalty_Neutral>  (174) 
5.50975e-07

>  <r_epik_State_Penalty>  (174) 
-0

>  <r_epik_Charging_Adjusted_Penalty>  (174) 
0

>  <i_epik_Tot_Q>  (174) 
0

>  <i_epik_Tot_abs_Q>  (174) 
0

>  <s_lp_Force_Field>  (174) 
OPLS3e

>  <r_lp_Energy>  (174) 
262.49

>  <b_lp_Chiralities_Consistent>  (174) 
1

>  <s_lp_Variant>  (174) 
59:0-2

>  <s_i_glide_gridfile>  (174) 
pfpi4k_grid

>  <i_i_glide_lignum>  (174) 
8

>  <i_i_glide_rotatable_bonds>  (174) 
3

>  <r_i_docking_score>  (174) 
-2.59115

>  <r_i_glide_ligand_efficiency>  (174) 
-0.0893499

>  <r_i_glide_ligand_efficiency_sa>  (174) 
-0.274511

>  <r_i_glide_ligand_efficiency_ln>  (174) 
-0.593307

>  <r_i_glide_gscore>  (174) 
-2.59115

>  <r_i_glide_lipo>  (174) 
-0.134048

>  <r_i_glide_hbond>  (174) 
0

>  <r_i_glide_metal>  (174) 
-0

>  <r_i_glide_rewards>  (174) 
-0.511358

>  <r_i_glide_evdw>  (174) 
-23.7615

>  <r_i_glide_ecoul>  (174) 
-5.05113

>  <r_i_glide_erotb>  (174) 
0

>  <r_i_glide_esite>  (174) 
0

>  <r_i_glide_emodel>  (174) 
-33.5231

>  <r_i_glide_energy>  (174) 
-28.8126

>  <r_i_glide_einternal>  (174) 
0.723581

>  <r_i_glide_intrahb_reward>  (174) 
-0

>  <i_i_glide_confnum>  (174) 
1

>  <i_i_glide_posenum>  (174) 
6

>  <r_i_glide_eff_state_penalty>  (174) 
0

>  <ligand_id>  (174) 
59

>  <original_smiles>  (174) 
CC1=C2C3CCC14CC(CO4)C1(C)C(C)(C)CC(Cl)CC1(O)C(C)(C2O)C3(C)O

>  <smiles>  (174) 
[H]OC1([H])C2=C(C([H])([H])[H])C34OC([H])([H])C([H])(C3([H])[H])C3(C([H])([H])[H])C(O[H])(C([H])([H])C([H])(Cl)C([H])([H])C3(C([H])([H])[H])C([H])([H])[H])C1(C([H])([H])[H])C(O[H])(C([H])([H])[H])C2([H])C([H])([H])C4([H])[H]

$$$$
60:0:0
     RDKit          3D

 81 86  0  0  1  0  0  0  0  0999 V2000
    0.0927   -8.5270    9.5260 C   0  0  0  0  0  0  0  0  0  0  0  0
    0.3071   -8.2382    8.0291 C   0  0  0  0  0  0  0  0  0  0  0  0
   -0.3235   -9.3509    7.1666 C   0  0  0  0  0  0  0  0  0  0  0  0
    1.7899   -8.0671    7.7150 C   0  0  0  0  0  0  0  0  0  0  0  0
    2.3318   -7.6080    6.5615 C   0  0  0  0  0  0  0  0  0  0  0  0
    3.8041   -7.4996    6.4677 C   0  0  0  0  0  0  0  0  0  0  0  0
    4.5527   -8.1455    7.2070 O   0  0  0  0  0  0  0  0  0  0  0  0
    4.3802   -6.6020    5.4474 C   0  0  0  0  0  0  0  0  0  0  0  0
    5.6424   -6.1652    5.4624 C   0  0  0  0  0  0  0  0  0  0  0  0
    5.8547   -5.2408    4.2923 C   0  0  1  0  0  0  0  0  0  0  0  0
    6.2185   -6.0807    2.9923 C   0  0  2  0  0  0  0  0  0  0  0  0
    6.0595   -5.2578    1.7214 C   0  0  0  0  0  0  0  0  0  0  0  0
    4.5787   -5.0428    1.2563 C   0  0  1  0  0  0  0  0  0  0  0  0
    4.5419   -5.0849   -0.3120 C   0  0  0  0  0  0  0  0  0  0  0  0
    3.5540   -6.1902    1.6682 C   0  0  0  0  0  0  0  0  0  0  0  0
    3.9106   -6.9028    2.9857 C   0  0  1  0  0  0  0  0  0  0  0  0
    5.4039   -7.4125    2.8204 C   0  0  0  0  0  0  0  0  0  0  0  0
    5.7065   -8.1011    1.4455 C   0  0  0  0  0  0  0  0  0  0  0  0
    5.8508   -8.5441    3.8031 C   0  0  0  0  0  0  0  0  0  0  0  0
    3.5980   -5.9897    4.2796 C   0  0  1  0  0  0  0  0  0  0  0  0
    2.0925   -5.8577    4.7060 C   0  0  1  0  0  0  0  0  0  0  0  0
    1.0833   -5.2553    3.7151 C   0  0  0  0  0  0  0  0  0  0  0  0
    1.5228   -7.1421    5.3532 C   0  0  1  0  0  0  0  0  0  0  0  0
    1.3971   -8.2021    4.4233 O   0  0  0  0  0  0  0  0  0  0  0  0
    4.4177   -4.6319    4.2582 C   0  0  1  0  0  0  0  0  0  0  0  0
    4.1953   -3.9506    5.5088 O   0  0  0  0  0  0  0  0  0  0  0  0
    4.1724   -3.3982    3.3056 C   0  0  1  0  0  0  0  0  0  0  0  0
    5.2061   -2.2542    3.5957 C   0  0  0  0  0  0  0  0  0  0  0  0
    4.0179   -3.6781    1.7812 C   0  0  1  0  0  0  0  0  0  0  0  0
    4.3283   -2.5205    0.9786 O   0  0  0  0  0  0  0  0  0  0  0  0
    5.5505   -2.0737    0.6272 C   0  0  0  0  0  0  0  0  0  0  0  0
    6.6309   -2.5298    0.9888 O   0  0  0  0  0  0  0  0  0  0  0  0
    5.5165   -0.9701   -0.3166 C   0  0  0  0  0  0  0  0  0  0  0  0
    4.7056   -0.8469   -1.4055 C   0  0  0  0  0  0  0  0  0  0  0  0
    3.6468   -1.6926   -1.9602 C   0  0  0  0  0  0  0  0  0  0  0  0
    2.9793   -1.6102   -3.1557 C   0  0  0  0  0  0  0  0  0  0  0  0
    2.0852   -2.7307   -3.1616 C   0  0  0  0  0  0  0  0  0  0  0  0
    2.2848   -3.3732   -1.9859 C   0  0  0  0  0  0  0  0  0  0  0  0
    3.2440   -2.7824   -1.2332 O   0  0  0  0  0  0  0  0  0  0  0  0
    0.4694   -7.7086   10.1403 H   0  0  0  0  0  0  0  0  0  0  0  0
    0.6119   -9.4355    9.8304 H   0  0  0  0  0  0  0  0  0  0  0  0
   -0.9611   -8.6783    9.7586 H   0  0  0  0  0  0  0  0  0  0  0  0
   -0.1902   -7.2927    7.8000 H   0  0  0  0  0  0  0  0  0  0  0  0
   -0.2665   -9.1252    6.1042 H   0  0  0  0  0  0  0  0  0  0  0  0
   -1.3811   -9.5081    7.3784 H   0  0  0  0  0  0  0  0  0  0  0  0
    0.1783  -10.3034    7.3229 H   0  0  0  0  0  0  0  0  0  0  0  0
    2.4456   -8.3317    8.5348 H   0  0  0  0  0  0  0  0  0  0  0  0
    6.4261   -6.3936    6.1703 H   0  0  0  0  0  0  0  0  0  0  0  0
    6.6010   -4.4895    4.5368 H   0  0  0  0  0  0  0  0  0  0  0  0
    7.2766   -6.3115    3.0446 H   0  0  0  0  0  0  0  0  0  0  0  0
    6.5321   -4.3439    1.9657 H   0  0  0  0  0  0  0  0  0  0  0  0
    6.5969   -5.7055    0.8873 H   0  0  0  0  0  0  0  0  0  0  0  0
    3.5000   -4.9902   -0.6251 H   0  0  0  0  0  0  0  0  0  0  0  0
    4.8871   -6.0294   -0.7617 H   0  0  0  0  0  0  0  0  0  0  0  0
    5.1704   -4.3023   -0.7669 H   0  0  0  0  0  0  0  0  0  0  0  0
    2.5171   -5.8324    1.6581 H   0  0  0  0  0  0  0  0  0  0  0  0
    3.4923   -6.9507    0.8763 H   0  0  0  0  0  0  0  0  0  0  0  0
    3.3054   -7.7938    3.0301 H   0  0  0  0  0  0  0  0  0  0  0  0
    5.1032   -8.9916    1.3132 H   0  0  0  0  0  0  0  0  0  0  0  0
    6.7553   -8.3861    1.3630 H   0  0  0  0  0  0  0  0  0  0  0  0
    5.5247   -7.5204    0.5565 H   0  0  0  0  0  0  0  0  0  0  0  0
    5.0123   -8.9077    4.3852 H   0  0  0  0  0  0  0  0  0  0  0  0
    6.6461   -8.2207    4.4752 H   0  0  0  0  0  0  0  0  0  0  0  0
    6.2617   -9.4166    3.2999 H   0  0  0  0  0  0  0  0  0  0  0  0
    2.0748   -5.1518    5.5344 H   0  0  0  0  0  0  0  0  0  0  0  0
    0.8056   -5.9511    2.9257 H   0  0  0  0  0  0  0  0  0  0  0  0
    1.4391   -4.3312    3.2719 H   0  0  0  0  0  0  0  0  0  0  0  0
    0.1614   -5.0041    4.2379 H   0  0  0  0  0  0  0  0  0  0  0  0
    0.5106   -6.9210    5.6902 H   0  0  0  0  0  0  0  0  0  0  0  0
    1.0690   -8.9688    4.8751 H   0  0  0  0  0  0  0  0  0  0  0  0
    4.7852   -3.2119    5.5380 H   0  0  0  0  0  0  0  0  0  0  0  0
    3.2077   -2.9534    3.5814 H   0  0  0  0  0  0  0  0  0  0  0  0
    6.1893   -2.5462    3.2216 H   0  0  0  0  0  0  0  0  0  0  0  0
    5.3087   -1.9620    4.6417 H   0  0  0  0  0  0  0  0  0  0  0  0
    4.9100   -1.3282    3.0888 H   0  0  0  0  0  0  0  0  0  0  0  0
    2.9325   -3.7703    1.6574 H   0  0  0  0  0  0  0  0  0  0  0  0
    6.2352   -0.1956   -0.0749 H   0  0  0  0  0  0  0  0  0  0  0  0
    4.9133    0.0732   -1.9814 H   0  0  0  0  0  0  0  0  0  0  0  0
    3.1206   -0.8145   -3.9079 H   0  0  0  0  0  0  0  0  0  0  0  0
    1.3867   -3.0253   -3.9305 H   0  0  0  0  0  0  0  0  0  0  0  0
    1.8288   -4.2485   -1.5356 H   0  0  0  0  0  0  0  0  0  0  0  0
  1  2  1  0
  1 40  1  0
  1 41  1  0
  1 42  1  0
  2  3  1  0
  2  4  1  0
  2 43  1  0
  3 44  1  0
  3 45  1  0
  3 46  1  0
  4  5  2  3
  4 47  1  0
  5 23  1  0
  5  6  1  0
  6  7  2  0
  6  8  1  0
 20  8  1  1
  8  9  2  0
  9 10  1  0
  9 48  1  0
 10 25  1  0
 10 11  1  0
 10 49  1  1
 11 17  1  0
 11 12  1  0
 11 50  1  1
 12 13  1  0
 12 51  1  0
 12 52  1  0
 13 29  1  0
 13 14  1  6
 13 15  1  0
 14 53  1  0
 14 54  1  0
 14 55  1  0
 15 16  1  0
 15 56  1  0
 15 57  1  0
 16 17  1  0
 16 20  1  0
 16 58  1  1
 17 18  1  0
 17 19  1  0
 18 59  1  0
 18 60  1  0
 18 61  1  0
 19 62  1  0
 19 63  1  0
 19 64  1  0
 20 21  1  0
 20 25  1  0
 21 22  1  0
 21 23  1  0
 21 65  1  1
 22 66  1  0
 22 67  1  0
 22 68  1  0
 23 24  1  0
 23 69  1  1
 24 70  1  0
 25 26  1  1
 25 27  1  0
 26 71  1  0
 27 28  1  0
 27 29  1  0
 27 72  1  1
 28 73  1  0
 28 74  1  0
 28 75  1  0
 29 30  1  0
 29 76  1  1
 30 31  1  0
 31 32  2  0
 31 33  1  0
 33 34  2  3
 33 77  1  0
 34 35  1  0
 34 78  1  0
 35 39  1  0
 35 36  2  0
 36 37  1  0
 36 79  1  0
 37 38  2  0
 37 80  1  0
 38 39  1  0
 38 81  1  0
M  END
>  <i_m_ct_stereo_status>  (175) 
1

>  <s_m_source_file>  (175) 
/var/tmp/pbs.5076255.sched01/tmpl83nofxy/76c90atywu.sdf

>  <i_m_source_file_index>  (175) 
9

>  <i_lp_mmshare_version>  (175) 
48012

>  <i_f3d_flags>  (175) 
0

>  <s_epik_input>  (175) 
W0NIM11bQ0hdKFtDSDNdKS9bQ0hdPUMoW0NASF0oW09IXSlbQ0BASF0xW0NIM10pXEMoPU8pQyhbQ0BdMTIzKT1bQ0hdW0NASF00W0NAQEhdNVtDSDJdW0NAQF0oW0NIM10pKFtDSDJdW0NASF0yQzUoW0NIM10pW0NIM10pW0NAQEhdKFtDQEhdKFtDSDNdKVtDQEBdMzRbT0hdKU9DKD1PKS9bQ0hdPVtDSF0vYzZbY0hdW2NIXVtjSF1vNg==

>  <s_epik_cmdline>  (175) 
J2VwaWtfcHl0aG9uJywgJy1waHQnLCAnMi4wJywgJy1waCcsICc3LjAnLCAnLXRuJywgJzgnLCAnLW1hJywgJzIwMCcsICctaW1hZScsICc8aW5maWxlLm1hZT4nLCAnLW9tYWUnLCAnPG91dGZpbGUubWFlPic=

>  <r_lp_tautomer_probability>  (175) 
1

>  <r_epik_Ionization_Penalty>  (175) 
1.28922e-05

>  <r_epik_Ionization_Penalty_Charging>  (175) 
0

>  <r_epik_Ionization_Penalty_Neutral>  (175) 
1.28922e-05

>  <r_epik_State_Penalty>  (175) 
-0

>  <r_epik_Charging_Adjusted_Penalty>  (175) 
0

>  <i_epik_Tot_Q>  (175) 
0

>  <i_epik_Tot_abs_Q>  (175) 
0

>  <s_epik_Chemistry_Notes>  (175) 
This compound has an ester and may undergo hydrolysis at high or low pH.

>  <s_lp_Force_Field>  (175) 
OPLS3e

>  <r_lp_Energy>  (175) 
117.319

>  <b_lp_Chiralities_Consistent>  (175) 
1

>  <s_lp_Variant>  (175) 
60:0-1

>  <s_i_glide_gridfile>  (175) 
pfpi4k_grid

>  <i_i_glide_lignum>  (175) 
9

>  <i_i_glide_rotatable_bonds>  (175) 
7

>  <r_i_docking_score>  (175) 
-1.90894

>  <r_i_glide_ligand_efficiency>  (175) 
-0.0489472

>  <r_i_glide_ligand_efficiency_sa>  (175) 
-0.16599

>  <r_i_glide_ligand_efficiency_ln>  (175) 
-0.409331

>  <r_i_glide_gscore>  (175) 
-1.90894

>  <r_i_glide_lipo>  (175) 
-0.653596

>  <r_i_glide_hbond>  (175) 
0

>  <r_i_glide_metal>  (175) 
-0

>  <r_i_glide_rewards>  (175) 
-0.0854749

>  <r_i_glide_evdw>  (175) 
-25.973

>  <r_i_glide_ecoul>  (175) 
-1.06547

>  <r_i_glide_erotb>  (175) 
0.288784

>  <r_i_glide_esite>  (175) 
-0.000183351

>  <r_i_glide_emodel>  (175) 
-18.231

>  <r_i_glide_energy>  (175) 
-27.0385

>  <r_i_glide_einternal>  (175) 
16.7129

>  <r_i_glide_intrahb_reward>  (175) 
-0

>  <i_i_glide_confnum>  (175) 
1

>  <i_i_glide_posenum>  (175) 
3

>  <r_i_glide_eff_state_penalty>  (175) 
0

>  <ligand_id>  (175) 
60

>  <original_smiles>  (175) 
CC(C)C=C1C(=O)C2=CC3C4CC5(C)CC(C4(C)C)C2(C(C)C1O)C3(O)C(C)C5OC(=O)C=Cc1ccco1

>  <smiles>  (175) 
[H]OC1([H])C(=C([H])C([H])(C([H])([H])[H])C([H])([H])[H])C(=O)C2=C([H])C3([H])C4([H])C([H])([H])C5(C([H])([H])[H])C([H])([H])C([H])(C2(C1([H])C([H])([H])[H])C3(O[H])C([H])(C([H])([H])[H])C5([H])OC(=O)C([H])=C([H])c1oc([H])c([H])c1[H])C4(C([H])([H])[H])C([H])([H])[H]

$$$$
61:0:0
     RDKit          3D

 34 37  0  0  1  0  0  0  0  0999 V2000
    3.0069   -2.8511    2.6552 C   0  0  0  0  0  0  0  0  0  0  0  0
    2.6193   -4.0232    1.8070 C   0  0  0  0  0  0  0  0  0  0  0  0
    1.9920   -5.0669    2.3272 N   0  0  0  0  0  0  0  0  0  0  0  0
    1.8077   -5.9188    1.2638 N   0  0  0  0  0  0  0  0  0  0  0  0
    2.2648   -5.4035    0.1695 N   0  0  0  0  0  0  0  0  0  0  0  0
    2.7918   -4.1887    0.4676 N   0  0  0  0  0  0  0  0  0  0  0  0
    3.4225   -3.3871   -0.6057 C   0  0  2  0  0  0  0  0  0  0  0  0
    4.7500   -4.0535   -1.0768 C   0  0  0  0  0  0  0  0  0  0  0  0
    5.4040   -3.1882   -2.1833 C   0  0  1  0  0  0  0  0  0  0  0  0
    4.4482   -3.0657   -3.3912 C   0  0  0  0  0  0  0  0  0  0  0  0
    3.1320   -2.4073   -2.9447 C   0  0  2  0  0  0  0  0  0  0  0  0
    3.4343   -0.9975   -2.4050 C   0  0  0  0  0  0  0  0  0  0  0  0
    4.3924   -1.1126   -1.2080 C   0  0  2  0  0  0  0  0  0  0  0  0
    5.7101   -1.7883   -1.6088 C   0  0  0  0  0  0  0  0  0  0  0  0
    3.7470   -1.9513   -0.1101 C   0  0  0  0  0  0  0  0  0  0  0  0
    2.4718   -3.2717   -1.8401 C   0  0  0  0  0  0  0  0  0  0  0  0
    2.6854   -2.9971    3.6915 H   0  0  0  0  0  0  0  0  0  0  0  0
    2.5283   -1.9394    2.3006 H   0  0  0  0  0  0  0  0  0  0  0  0
    4.0886   -2.7230    2.6432 H   0  0  0  0  0  0  0  0  0  0  0  0
    5.4334   -4.1749   -0.2357 H   0  0  0  0  0  0  0  0  0  0  0  0
    4.5900   -5.0565   -1.4713 H   0  0  0  0  0  0  0  0  0  0  0  0
    6.3345   -3.6511   -2.5081 H   0  0  0  0  0  0  0  0  0  0  0  0
    4.9040   -2.4507   -4.1643 H   0  0  0  0  0  0  0  0  0  0  0  0
    4.2505   -4.0457   -3.8263 H   0  0  0  0  0  0  0  0  0  0  0  0
    2.4481   -2.3196   -3.7903 H   0  0  0  0  0  0  0  0  0  0  0  0
    3.8502   -0.3356   -3.1703 H   0  0  0  0  0  0  0  0  0  0  0  0
    2.4990   -0.5553   -2.0846 H   0  0  0  0  0  0  0  0  0  0  0  0
    4.6010   -0.1301   -0.7928 H   0  0  0  0  0  0  0  0  0  0  0  0
    6.3725   -1.8752   -0.7438 H   0  0  0  0  0  0  0  0  0  0  0  0
    6.2223   -1.1587   -2.3123 H   0  0  0  0  0  0  0  0  0  0  0  0
    2.8347   -1.4376    0.2056 H   0  0  0  0  0  0  0  0  0  0  0  0
    4.4649   -1.9721    0.7102 H   0  0  0  0  0  0  0  0  0  0  0  0
    2.2170   -4.2483   -2.2545 H   0  0  0  0  0  0  0  0  0  0  0  0
    1.5138   -2.8474   -1.5513 H   0  0  0  0  0  0  0  0  0  0  0  0
  1  2  1  0
  1 17  1  0
  1 18  1  0
  1 19  1  0
  2  6  1  0
  2  3  2  0
  3  4  1  0
  4  5  2  0
  5  6  1  0
  7  6  1  1
  7 15  1  0
  7 16  1  0
  7  8  1  0
  8  9  1  0
  8 20  1  0
  8 21  1  0
  9 14  1  0
  9 10  1  0
  9 22  1  6
 10 11  1  0
 10 23  1  0
 10 24  1  0
 11 12  1  0
 11 16  1  0
 11 25  1  6
 12 13  1  0
 12 26  1  0
 12 27  1  0
 13 14  1  0
 13 15  1  0
 13 28  1  1
 14 29  1  0
 14 30  1  0
 15 31  1  0
 15 32  1  0
 16 33  1  0
 16 34  1  0
M  END
>  <i_m_ct_stereo_status>  (176) 
1

>  <s_m_source_file>  (176) 
/var/tmp/pbs.5076255.sched01/tmpl83nofxy/76c90atywu.sdf

>  <i_m_source_file_index>  (176) 
10

>  <i_lp_mmshare_version>  (176) 
48012

>  <i_f3d_flags>  (176) 
0

>  <s_epik_input>  (176) 
W0NIM11jMW5ubm4xQzIzW0NIMl1bQ0BASF00W0NIMl1bQ0BIXShbQ0gyXTMpW0NIMl1bQ0BASF0oW0NIMl00KVtDSDJdMg==

>  <s_epik_cmdline>  (176) 
J2VwaWtfcHl0aG9uJywgJy1waHQnLCAnMi4wJywgJy1waCcsICc3LjAnLCAnLXRuJywgJzgnLCAnLW1hJywgJzIwMCcsICctaW1hZScsICc8aW5maWxlLm1hZT4nLCAnLW9tYWUnLCAnPG91dGZpbGUubWFlPic=

>  <r_lp_tautomer_probability>  (176) 
1

>  <r_epik_Ionization_Penalty>  (176) 
1.57542e-07

>  <r_epik_Ionization_Penalty_Charging>  (176) 
0

>  <r_epik_Ionization_Penalty_Neutral>  (176) 
1.57542e-07

>  <r_epik_State_Penalty>  (176) 
-0

>  <r_epik_Charging_Adjusted_Penalty>  (176) 
0

>  <i_epik_Tot_Q>  (176) 
0

>  <i_epik_Tot_abs_Q>  (176) 
0

>  <s_lp_Force_Field>  (176) 
OPLS3e

>  <r_lp_Energy>  (176) 
9.18867

>  <b_lp_Chiralities_Consistent>  (176) 
1

>  <s_lp_Variant>  (176) 
61:0-1

>  <s_i_glide_gridfile>  (176) 
pfpi4k_grid

>  <i_i_glide_lignum>  (176) 
10

>  <i_i_glide_rotatable_bonds>  (176) 
1

>  <r_i_docking_score>  (176) 
-3.26914

>  <r_i_glide_ligand_efficiency>  (176) 
-0.204321

>  <r_i_glide_ligand_efficiency_sa>  (176) 
-0.514857

>  <r_i_glide_ligand_efficiency_ln>  (176) 
-0.86655

>  <r_i_glide_gscore>  (176) 
-3.26914

>  <r_i_glide_lipo>  (176) 
-0.51534

>  <r_i_glide_hbond>  (176) 
0

>  <r_i_glide_metal>  (176) 
-0

>  <r_i_glide_rewards>  (176) 
-1.92069

>  <r_i_glide_evdw>  (176) 
-14.2534

>  <r_i_glide_ecoul>  (176) 
-1.9405

>  <r_i_glide_erotb>  (176) 
0.3526

>  <r_i_glide_esite>  (176) 
-0.181956

>  <r_i_glide_emodel>  (176) 
-18.6167

>  <r_i_glide_energy>  (176) 
-16.1939

>  <r_i_glide_einternal>  (176) 
0.979544

>  <r_i_glide_intrahb_reward>  (176) 
-0

>  <i_i_glide_confnum>  (176) 
3

>  <i_i_glide_posenum>  (176) 
25

>  <r_i_glide_eff_state_penalty>  (176) 
0

>  <ligand_id>  (176) 
61

>  <original_smiles>  (176) 
Cc1nnnn1C12CC3CC(CC(C3)C1)C2

>  <smiles>  (176) 
[H]C([H])([H])c1nnnn1C12C([H])([H])C3([H])C([H])([H])C([H])(C([H])([H])C([H])(C3([H])[H])C1([H])[H])C2([H])[H]

$$$$
61:0:1
     RDKit          3D

 34 37  0  0  1  0  0  0  0  0999 V2000
    3.5570   -1.6702    1.9128 C   0  0  0  0  0  0  0  0  0  0  0  0
    4.3625   -2.8784    1.5939 C   0  0  0  0  0  0  0  0  0  0  0  0
    4.9656   -3.5869    2.5511 N   0  0  0  0  0  0  0  0  0  0  0  0
    5.5994   -4.6036    1.8435 N   0  0  0  0  0  0  0  0  0  0  0  0
    5.3852   -4.4905    0.5681 N   0  0  0  0  0  0  0  0  0  0  0  0
    4.5965   -3.3976    0.3557 N   0  0  0  0  0  0  0  0  0  0  0  0
    4.1753   -2.9980   -1.0023 C   0  0  2  0  0  0  0  0  0  0  0  0
    4.7325   -1.6021   -1.3660 C   0  0  0  0  0  0  0  0  0  0  0  0
    4.2458   -1.1941   -2.7723 C   0  0  1  0  0  0  0  0  0  0  0  0
    4.7280   -2.2248   -3.8035 C   0  0  0  0  0  0  0  0  0  0  0  0
    4.1405   -3.6136   -3.4941 C   0  0  2  0  0  0  0  0  0  0  0  0
    2.5949   -3.4928   -3.6131 C   0  0  0  0  0  0  0  0  0  0  0  0
    2.1607   -2.5513   -2.5108 C   0  0  2  0  0  0  0  0  0  0  0  0
    2.7102   -1.1391   -2.8272 C   0  0  0  0  0  0  0  0  0  0  0  0
    2.6376   -3.0030   -1.1068 C   0  0  0  0  0  0  0  0  0  0  0  0
    4.6790   -3.9956   -2.0754 C   0  0  0  0  0  0  0  0  0  0  0  0
    3.5899   -1.4893    2.9933 H   0  0  0  0  0  0  0  0  0  0  0  0
    2.5153   -1.8040    1.6335 H   0  0  0  0  0  0  0  0  0  0  0  0
    3.9658   -0.7964    1.4151 H   0  0  0  0  0  0  0  0  0  0  0  0
    4.4228   -0.8235   -0.6701 H   0  0  0  0  0  0  0  0  0  0  0  0
    5.8271   -1.6428   -1.3449 H   0  0  0  0  0  0  0  0  0  0  0  0
    4.6353   -0.2058   -3.0240 H   0  0  0  0  0  0  0  0  0  0  0  0
    4.4213   -1.8644   -4.7866 H   0  0  0  0  0  0  0  0  0  0  0  0
    5.7831   -2.3240   -3.7002 H   0  0  0  0  0  0  0  0  0  0  0  0
    4.4990   -4.3302   -4.2338 H   0  0  0  0  0  0  0  0  0  0  0  0
    2.2934   -3.1107   -4.5984 H   0  0  0  0  0  0  0  0  0  0  0  0
    2.0279   -4.4035   -3.4707 H   0  0  0  0  0  0  0  0  0  0  0  0
    1.0757   -2.6451   -2.4982 H   0  0  0  0  0  0  0  0  0  0  0  0
    2.3520   -0.3922   -2.1290 H   0  0  0  0  0  0  0  0  0  0  0  0
    2.4140   -0.8234   -3.8238 H   0  0  0  0  0  0  0  0  0  0  0  0
    2.2054   -3.9816   -0.8578 H   0  0  0  0  0  0  0  0  0  0  0  0
    2.2285   -2.2872   -0.3888 H   0  0  0  0  0  0  0  0  0  0  0  0
    5.7776   -4.0087   -2.1235 H   0  0  0  0  0  0  0  0  0  0  0  0
    4.4118   -4.9923   -1.7425 H   0  0  0  0  0  0  0  0  0  0  0  0
  1  2  1  0
  1 17  1  0
  1 18  1  0
  1 19  1  0
  2  6  1  0
  2  3  2  0
  3  4  1  0
  4  5  2  0
  5  6  1  0
  7  6  1  1
  7 15  1  0
  7 16  1  0
  7  8  1  0
  8  9  1  0
  8 20  1  0
  8 21  1  0
  9 14  1  0
  9 10  1  0
  9 22  1  6
 10 11  1  0
 10 23  1  0
 10 24  1  0
 11 12  1  0
 11 16  1  0
 11 25  1  6
 12 13  1  0
 12 26  1  0
 12 27  1  0
 13 14  1  0
 13 15  1  0
 13 28  1  1
 14 29  1  0
 14 30  1  0
 15 31  1  0
 15 32  1  0
 16 33  1  0
 16 34  1  0
M  END
>  <i_m_ct_stereo_status>  (177) 
1

>  <s_m_source_file>  (177) 
/var/tmp/pbs.5076255.sched01/tmpl83nofxy/76c90atywu.sdf

>  <i_m_source_file_index>  (177) 
10

>  <i_lp_mmshare_version>  (177) 
48012

>  <i_f3d_flags>  (177) 
0

>  <s_epik_input>  (177) 
W0NIM11jMW5ubm4xQzIzW0NIMl1bQ0BASF00W0NIMl1bQ0BIXShbQ0gyXTMpW0NIMl1bQ0BASF0oW0NIMl00KVtDSDJdMg==

>  <s_epik_cmdline>  (177) 
J2VwaWtfcHl0aG9uJywgJy1waHQnLCAnMi4wJywgJy1waCcsICc3LjAnLCAnLXRuJywgJzgnLCAnLW1hJywgJzIwMCcsICctaW1hZScsICc8aW5maWxlLm1hZT4nLCAnLW9tYWUnLCAnPG91dGZpbGUubWFlPic=

>  <r_lp_tautomer_probability>  (177) 
1

>  <r_epik_Ionization_Penalty>  (177) 
1.57542e-07

>  <r_epik_Ionization_Penalty_Charging>  (177) 
0

>  <r_epik_Ionization_Penalty_Neutral>  (177) 
1.57542e-07

>  <r_epik_State_Penalty>  (177) 
-0

>  <r_epik_Charging_Adjusted_Penalty>  (177) 
0

>  <i_epik_Tot_Q>  (177) 
0

>  <i_epik_Tot_abs_Q>  (177) 
0

>  <s_lp_Force_Field>  (177) 
OPLS3e

>  <r_lp_Energy>  (177) 
9.18867

>  <b_lp_Chiralities_Consistent>  (177) 
1

>  <s_lp_Variant>  (177) 
61:0-1

>  <s_i_glide_gridfile>  (177) 
pfpi4k_grid

>  <i_i_glide_lignum>  (177) 
10

>  <i_i_glide_rotatable_bonds>  (177) 
1

>  <r_i_docking_score>  (177) 
-2.44159

>  <r_i_glide_ligand_efficiency>  (177) 
-0.152599

>  <r_i_glide_ligand_efficiency_sa>  (177) 
-0.384526

>  <r_i_glide_ligand_efficiency_ln>  (177) 
-0.647191

>  <r_i_glide_gscore>  (177) 
-2.44159

>  <r_i_glide_lipo>  (177) 
-0.247756

>  <r_i_glide_hbond>  (177) 
0

>  <r_i_glide_metal>  (177) 
-0

>  <r_i_glide_rewards>  (177) 
-1.97738

>  <r_i_glide_evdw>  (177) 
-7.79004

>  <r_i_glide_ecoul>  (177) 
-1.197

>  <r_i_glide_erotb>  (177) 
0.3526

>  <r_i_glide_esite>  (177) 
0

>  <r_i_glide_emodel>  (177) 
-10.6068

>  <r_i_glide_energy>  (177) 
-8.98704

>  <r_i_glide_einternal>  (177) 
0.0337269

>  <r_i_glide_intrahb_reward>  (177) 
-0

>  <i_i_glide_confnum>  (177) 
5

>  <i_i_glide_posenum>  (177) 
1

>  <r_i_glide_eff_state_penalty>  (177) 
0

>  <ligand_id>  (177) 
61

>  <original_smiles>  (177) 
Cc1nnnn1C12CC3CC(CC(C3)C1)C2

>  <smiles>  (177) 
[H]C([H])([H])c1nnnn1C12C([H])([H])C3([H])C([H])([H])C([H])(C([H])([H])C([H])(C3([H])[H])C1([H])[H])C2([H])[H]

$$$$
61:0:2
     RDKit          3D

 34 37  0  0  1  0  0  0  0  0999 V2000
    3.0202   -0.6995    1.5972 C   0  0  0  0  0  0  0  0  0  0  0  0
    4.4847   -0.9541    1.3868 C   0  0  0  0  0  0  0  0  0  0  0  0
    5.3767   -0.6537    2.3116 N   0  0  0  0  0  0  0  0  0  0  0  0
    6.5680   -1.0619    1.7610 N   0  0  0  0  0  0  0  0  0  0  0  0
    6.4192   -1.5374    0.5718 N   0  0  0  0  0  0  0  0  0  0  0  0
    5.0878   -1.5107    0.2923 N   0  0  0  0  0  0  0  0  0  0  0  0
    4.5735   -2.0241   -0.9759 C   0  0  2  0  0  0  0  0  0  0  0  0
    3.7825   -0.9237   -1.7112 C   0  0  0  0  0  0  0  0  0  0  0  0
    3.2179   -1.4225   -3.0482 C   0  0  1  0  0  0  0  0  0  0  0  0
    4.3632   -1.8811   -3.9603 C   0  0  0  0  0  0  0  0  0  0  0  0
    5.1484   -3.0064   -3.2514 C   0  0  2  0  0  0  0  0  0  0  0  0
    4.2178   -4.1774   -2.9610 C   0  0  0  0  0  0  0  0  0  0  0  0
    3.0474   -3.6864   -2.0497 C   0  0  2  0  0  0  0  0  0  0  0  0
    2.2686   -2.6027   -2.7922 C   0  0  0  0  0  0  0  0  0  0  0  0
    3.6247   -3.2127   -0.7156 C   0  0  0  0  0  0  0  0  0  0  0  0
    5.7272   -2.5005   -1.9244 C   0  0  0  0  0  0  0  0  0  0  0  0
    2.8547   -0.2605    2.5894 H   0  0  0  0  0  0  0  0  0  0  0  0
    2.4455   -1.6236    1.5543 H   0  0  0  0  0  0  0  0  0  0  0  0
    2.6327    0.0068    0.8651 H   0  0  0  0  0  0  0  0  0  0  0  0
    2.9456   -0.6615   -1.0929 H   0  0  0  0  0  0  0  0  0  0  0  0
    4.4036   -0.0443   -1.8628 H   0  0  0  0  0  0  0  0  0  0  0  0
    2.6501   -0.6211   -3.5140 H   0  0  0  0  0  0  0  0  0  0  0  0
    3.9086   -2.2354   -4.8840 H   0  0  0  0  0  0  0  0  0  0  0  0
    5.0090   -1.0319   -4.1935 H   0  0  0  0  0  0  0  0  0  0  0  0
    5.9532   -3.3640   -3.8828 H   0  0  0  0  0  0  0  0  0  0  0  0
    3.8520   -4.5801   -3.9100 H   0  0  0  0  0  0  0  0  0  0  0  0
    4.8010   -4.9603   -2.4689 H   0  0  0  0  0  0  0  0  0  0  0  0
    2.2766   -4.3927   -1.7574 H   0  0  0  0  0  0  0  0  0  0  0  0
    1.4172   -2.3268   -2.1892 H   0  0  0  0  0  0  0  0  0  0  0  0
    1.8485   -2.9984   -3.7218 H   0  0  0  0  0  0  0  0  0  0  0  0
    4.1568   -4.0252   -0.2100 H   0  0  0  0  0  0  0  0  0  0  0  0
    2.7928   -2.9373   -0.0696 H   0  0  0  0  0  0  0  0  0  0  0  0
    6.4056   -1.6720   -2.1214 H   0  0  0  0  0  0  0  0  0  0  0  0
    6.3129   -3.2974   -1.4540 H   0  0  0  0  0  0  0  0  0  0  0  0
  1  2  1  0
  1 17  1  0
  1 18  1  0
  1 19  1  0
  2  6  1  0
  2  3  2  0
  3  4  1  0
  4  5  2  0
  5  6  1  0
  7  6  1  1
  7 15  1  0
  7 16  1  0
  7  8  1  0
  8  9  1  0
  8 20  1  0
  8 21  1  0
  9 14  1  0
  9 10  1  0
  9 22  1  6
 10 11  1  0
 10 23  1  0
 10 24  1  0
 11 12  1  0
 11 16  1  0
 11 25  1  6
 12 13  1  0
 12 26  1  0
 12 27  1  0
 13 14  1  0
 13 15  1  0
 13 28  1  1
 14 29  1  0
 14 30  1  0
 15 31  1  0
 15 32  1  0
 16 33  1  0
 16 34  1  0
M  END
>  <i_m_ct_stereo_status>  (178) 
1

>  <s_m_source_file>  (178) 
/var/tmp/pbs.5076255.sched01/tmpl83nofxy/76c90atywu.sdf

>  <i_m_source_file_index>  (178) 
10

>  <i_lp_mmshare_version>  (178) 
48012

>  <i_f3d_flags>  (178) 
0

>  <s_epik_input>  (178) 
W0NIM11jMW5ubm4xQzIzW0NIMl1bQ0BASF00W0NIMl1bQ0BIXShbQ0gyXTMpW0NIMl1bQ0BASF0oW0NIMl00KVtDSDJdMg==

>  <s_epik_cmdline>  (178) 
J2VwaWtfcHl0aG9uJywgJy1waHQnLCAnMi4wJywgJy1waCcsICc3LjAnLCAnLXRuJywgJzgnLCAnLW1hJywgJzIwMCcsICctaW1hZScsICc8aW5maWxlLm1hZT4nLCAnLW9tYWUnLCAnPG91dGZpbGUubWFlPic=

>  <r_lp_tautomer_probability>  (178) 
1

>  <r_epik_Ionization_Penalty>  (178) 
1.57542e-07

>  <r_epik_Ionization_Penalty_Charging>  (178) 
0

>  <r_epik_Ionization_Penalty_Neutral>  (178) 
1.57542e-07

>  <r_epik_State_Penalty>  (178) 
-0

>  <r_epik_Charging_Adjusted_Penalty>  (178) 
0

>  <i_epik_Tot_Q>  (178) 
0

>  <i_epik_Tot_abs_Q>  (178) 
0

>  <s_lp_Force_Field>  (178) 
OPLS3e

>  <r_lp_Energy>  (178) 
9.18867

>  <b_lp_Chiralities_Consistent>  (178) 
1

>  <s_lp_Variant>  (178) 
61:0-1

>  <s_i_glide_gridfile>  (178) 
pfpi4k_grid

>  <i_i_glide_lignum>  (178) 
10

>  <i_i_glide_rotatable_bonds>  (178) 
1

>  <r_i_docking_score>  (178) 
-2.43418

>  <r_i_glide_ligand_efficiency>  (178) 
-0.152137

>  <r_i_glide_ligand_efficiency_sa>  (178) 
-0.38336

>  <r_i_glide_ligand_efficiency_ln>  (178) 
-0.645229

>  <r_i_glide_gscore>  (178) 
-2.43418

>  <r_i_glide_lipo>  (178) 
-0.221442

>  <r_i_glide_hbond>  (178) 
0

>  <r_i_glide_metal>  (178) 
-0

>  <r_i_glide_rewards>  (178) 
-2.06987

>  <r_i_glide_evdw>  (178) 
-6.83289

>  <r_i_glide_ecoul>  (178) 
-1.02549

>  <r_i_glide_erotb>  (178) 
0.3526

>  <r_i_glide_esite>  (178) 
0

>  <r_i_glide_emodel>  (178) 
-9.95923

>  <r_i_glide_energy>  (178) 
-7.85838

>  <r_i_glide_einternal>  (178) 
0.0295626

>  <r_i_glide_intrahb_reward>  (178) 
-0

>  <i_i_glide_confnum>  (178) 
5

>  <i_i_glide_posenum>  (178) 
34

>  <r_i_glide_eff_state_penalty>  (178) 
0

>  <ligand_id>  (178) 
61

>  <original_smiles>  (178) 
Cc1nnnn1C12CC3CC(CC(C3)C1)C2

>  <smiles>  (178) 
[H]C([H])([H])c1nnnn1C12C([H])([H])C3([H])C([H])([H])C([H])(C([H])([H])C([H])(C3([H])[H])C1([H])[H])C2([H])[H]

$$$$
62:0:0
     RDKit          3D

 60 63  0  0  1  0  0  0  0  0999 V2000
    0.6208   -8.5939    4.2266 C   0  0  0  0  0  0  0  0  0  0  0  0
    1.0016   -8.2799    2.9731 C   0  0  0  0  0  0  0  0  0  0  0  0
    0.0031   -7.6775    2.0712 C   0  0  0  0  0  0  0  0  0  0  0  0
   -0.9922   -7.0549    2.4527 O   0  0  0  0  0  0  0  0  0  0  0  0
    2.3948   -8.5193    2.3823 C   0  0  2  0  0  0  0  0  0  0  0  0
    3.1160   -9.8078    2.8588 C   0  0  0  0  0  0  0  0  0  0  0  0
    4.5821   -9.4229    3.1505 C   0  0  0  0  0  0  0  0  0  0  0  0
    4.7873   -8.0493    2.4948 C   0  0  2  0  0  0  0  0  0  0  0  0
    5.1789   -8.2720    1.0233 C   0  0  0  0  0  0  0  0  0  0  0  0
    5.7990   -7.1081    3.1631 C   0  0  0  0  0  0  0  0  0  0  0  0
    6.6136   -7.4909    3.9966 O   0  0  0  0  0  0  0  0  0  0  0  0
    5.7693   -5.6551    2.6705 C   0  0  0  0  0  0  0  0  0  0  0  0
    4.3503   -4.9892    2.7022 C   0  0  2  0  0  0  0  0  0  0  0  0
    4.1101   -4.5117    4.1548 C   0  0  0  0  0  0  0  0  0  0  0  0
    3.2194   -5.9728    2.2260 C   0  0  1  0  0  0  0  0  0  0  0  0
    3.0724   -5.7872    0.6931 C   0  0  1  0  0  0  0  0  0  0  0  0
    1.7444   -5.4751    0.3450 O   0  0  0  0  0  0  0  0  0  0  0  0
    4.0001   -4.6137    0.3701 C   0  0  1  0  0  0  0  0  0  0  0  0
    3.6690   -3.7673   -0.7194 O   0  0  0  0  0  0  0  0  0  0  0  0
    4.6349   -2.7631   -1.0802 C   0  0  0  0  0  0  0  0  0  0  0  0
    5.7179   -3.4198   -1.9492 C   0  0  0  0  0  0  0  0  0  0  0  0
    3.8708   -1.7197   -1.9057 C   0  0  0  0  0  0  0  0  0  0  0  0
    5.3208   -2.1128    0.1561 C   0  0  0  0  0  0  0  0  0  0  0  0
    5.8361   -1.0107    0.0805 O   0  0  0  0  0  0  0  0  0  0  0  0
    5.4615   -2.9418    1.4406 C   0  0  0  0  0  0  0  0  0  0  0  0
    4.2191   -3.8231    1.6565 C   0  0  2  0  0  0  0  0  0  0  0  0
    3.0047   -2.9011    1.9644 C   0  0  0  0  0  0  0  0  0  0  0  0
    3.4092   -7.4206    2.7361 C   0  0  1  0  0  0  0  0  0  0  0  0
   -0.3987   -8.4299    4.5512 H   0  0  0  0  0  0  0  0  0  0  0  0
    1.2996   -9.0261    4.9445 H   0  0  0  0  0  0  0  0  0  0  0  0
    0.2414   -7.7668    1.0128 H   0  0  0  0  0  0  0  0  0  0  0  0
    2.2902   -8.5776    1.2939 H   0  0  0  0  0  0  0  0  0  0  0  0
    2.6797  -10.2675    3.7435 H   0  0  0  0  0  0  0  0  0  0  0  0
    3.0511  -10.5649    2.0714 H   0  0  0  0  0  0  0  0  0  0  0  0
    4.7366   -9.3644    4.2270 H   0  0  0  0  0  0  0  0  0  0  0  0
    5.2704  -10.1751    2.7729 H   0  0  0  0  0  0  0  0  0  0  0  0
    4.4217   -8.8121    0.4618 H   0  0  0  0  0  0  0  0  0  0  0  0
    6.0959   -8.8618    0.9689 H   0  0  0  0  0  0  0  0  0  0  0  0
    5.3909   -7.3436    0.4960 H   0  0  0  0  0  0  0  0  0  0  0  0
    6.4683   -5.0643    3.2648 H   0  0  0  0  0  0  0  0  0  0  0  0
    6.1835   -5.6609    1.6664 H   0  0  0  0  0  0  0  0  0  0  0  0
    3.0979   -4.1356    4.3190 H   0  0  0  0  0  0  0  0  0  0  0  0
    4.8046   -3.7113    4.4207 H   0  0  0  0  0  0  0  0  0  0  0  0
    4.2644   -5.3204    4.8731 H   0  0  0  0  0  0  0  0  0  0  0  0
    2.2859   -5.6178    2.6677 H   0  0  0  0  0  0  0  0  0  0  0  0
    3.3472   -6.6508    0.0993 H   0  0  0  0  0  0  0  0  0  0  0  0
    1.7840   -5.2281   -0.5685 H   0  0  0  0  0  0  0  0  0  0  0  0
    4.9398   -5.0887    0.1001 H   0  0  0  0  0  0  0  0  0  0  0  0
    6.4167   -2.6927   -2.3597 H   0  0  0  0  0  0  0  0  0  0  0  0
    5.2961   -3.9901   -2.7761 H   0  0  0  0  0  0  0  0  0  0  0  0
    6.3045   -4.1066   -1.3364 H   0  0  0  0  0  0  0  0  0  0  0  0
    4.5173   -0.9308   -2.2823 H   0  0  0  0  0  0  0  0  0  0  0  0
    3.0984   -1.2486   -1.2891 H   0  0  0  0  0  0  0  0  0  0  0  0
    3.3670   -2.1793   -2.7549 H   0  0  0  0  0  0  0  0  0  0  0  0
    6.3626   -3.5407    1.3338 H   0  0  0  0  0  0  0  0  0  0  0  0
    5.6289   -2.2840    2.2936 H   0  0  0  0  0  0  0  0  0  0  0  0
    2.7607   -2.2408    1.1275 H   0  0  0  0  0  0  0  0  0  0  0  0
    3.2072   -2.2511    2.8197 H   0  0  0  0  0  0  0  0  0  0  0  0
    2.0880   -3.4539    2.1807 H   0  0  0  0  0  0  0  0  0  0  0  0
    3.3087   -7.3151    3.8207 H   0  0  0  0  0  0  0  0  0  0  0  0
  1  2  2  0
  1 29  1  0
  1 30  1  0
  2  3  1  0
  2  5  1  0
  3  4  2  0
  3 31  1  0
  5 28  1  0
  5  6  1  0
  5 32  1  6
  6  7  1  0
  6 33  1  0
  6 34  1  0
  7  8  1  0
  7 35  1  0
  7 36  1  0
  8 28  1  0
  8  9  1  6
  8 10  1  0
  9 37  1  0
  9 38  1  0
  9 39  1  0
 10 11  2  0
 10 12  1  0
 12 13  1  0
 12 40  1  0
 12 41  1  0
 13 26  1  0
 13 14  1  1
 13 15  1  0
 14 42  1  0
 14 43  1  0
 14 44  1  0
 15 16  1  0
 15 28  1  0
 15 45  1  1
 16 17  1  0
 16 18  1  0
 16 46  1  6
 17 47  1  0
 18 26  1  0
 18 19  1  0
 18 48  1  6
 19 20  1  0
 20 21  1  0
 20 22  1  0
 20 23  1  0
 21 49  1  0
 21 50  1  0
 21 51  1  0
 22 52  1  0
 22 53  1  0
 22 54  1  0
 23 24  2  0
 23 25  1  0
 25 26  1  0
 25 55  1  0
 25 56  1  0
 26 27  1  1
 27 57  1  0
 27 58  1  0
 27 59  1  0
 28 60  1  1
M  END
>  <i_m_ct_stereo_status>  (179) 
1

>  <s_m_source_file>  (179) 
/var/tmp/pbs.5076255.sched01/tmpl83nofxy/76c90atywu.sdf

>  <i_m_source_file_index>  (179) 
11

>  <i_lp_mmshare_version>  (179) 
48012

>  <i_f3d_flags>  (179) 
0

>  <s_epik_input>  (179) 
Tz1bQ0hdQyg9W0NIMl0pW0NASF0oW0NIMl1bQ0gyXTEpW0NAQEhdKFtDQF0xMltDSDNdKVtDQEhdM1tDQEBdKFtDSDNdKShbQ0gyXUMyPU8pW0NAXTQoW0NIM10pW0NAQEhdKFtDQEBIXTNbT0hdKU9DKFtDSDNdKShbQ0gzXSlDKD1PKVtDSDJdNA==

>  <s_epik_cmdline>  (179) 
J2VwaWtfcHl0aG9uJywgJy1waHQnLCAnMi4wJywgJy1waCcsICc3LjAnLCAnLXRuJywgJzgnLCAnLW1hJywgJzIwMCcsICctaW1hZScsICc8aW5maWxlLm1hZT4nLCAnLW9tYWUnLCAnPG91dGZpbGUubWFlPic=

>  <r_lp_tautomer_probability>  (179) 
1

>  <r_epik_Ionization_Penalty>  (179) 
4.39602e-08

>  <r_epik_Ionization_Penalty_Charging>  (179) 
0

>  <r_epik_Ionization_Penalty_Neutral>  (179) 
4.39602e-08

>  <r_epik_State_Penalty>  (179) 
-0

>  <r_epik_Charging_Adjusted_Penalty>  (179) 
0

>  <i_epik_Tot_Q>  (179) 
0

>  <i_epik_Tot_abs_Q>  (179) 
0

>  <s_lp_Force_Field>  (179) 
OPLS3e

>  <r_lp_Energy>  (179) 
57.6092

>  <b_lp_Chiralities_Consistent>  (179) 
1

>  <s_lp_Variant>  (179) 
62:0-1

>  <s_i_glide_gridfile>  (179) 
pfpi4k_grid

>  <i_i_glide_lignum>  (179) 
11

>  <i_i_glide_rotatable_bonds>  (179) 
3

>  <r_i_docking_score>  (179) 
-3.37113

>  <r_i_glide_ligand_efficiency>  (179) 
-0.120397

>  <r_i_glide_ligand_efficiency_sa>  (179) 
-0.365598

>  <r_i_glide_ligand_efficiency_ln>  (179) 
-0.778156

>  <r_i_glide_gscore>  (179) 
-3.37113

>  <r_i_glide_lipo>  (179) 
-0.329755

>  <r_i_glide_hbond>  (179) 
-0.16

>  <r_i_glide_metal>  (179) 
-0

>  <r_i_glide_rewards>  (179) 
-0.788031

>  <r_i_glide_evdw>  (179) 
-29.8884

>  <r_i_glide_ecoul>  (179) 
-5.25648

>  <r_i_glide_erotb>  (179) 
0.258194

>  <r_i_glide_esite>  (179) 
-0.0686466

>  <r_i_glide_emodel>  (179) 
-40.2666

>  <r_i_glide_energy>  (179) 
-35.1449

>  <r_i_glide_einternal>  (179) 
5.00899

>  <r_i_glide_intrahb_reward>  (179) 
-0

>  <i_i_glide_confnum>  (179) 
2

>  <i_i_glide_posenum>  (179) 
1

>  <r_i_glide_eff_state_penalty>  (179) 
0

>  <ligand_id>  (179) 
62

>  <original_smiles>  (179) 
C=C(C=O)C1CCC2(C)C(=O)CC3(C)C(C(O)C4OC(C)(C)C(=O)CC43C)C12

>  <smiles>  (179) 
[H]OC1([H])C2([H])OC(C([H])([H])[H])(C([H])([H])[H])C(=O)C([H])([H])C2(C([H])([H])[H])C2(C([H])([H])[H])C([H])([H])C(=O)C3(C([H])([H])[H])C([H])([H])C([H])([H])C([H])(C(C([H])=O)=C([H])[H])C3([H])C12[H]

$$$$
62:0:1
     RDKit          3D

 60 63  0  0  1  0  0  0  0  0999 V2000
    5.8012   -3.3235   -1.0822 C   0  0  0  0  0  0  0  0  0  0  0  0
    4.5424   -2.8608   -0.9379 C   0  0  0  0  0  0  0  0  0  0  0  0
    3.6740   -2.7533   -2.1340 C   0  0  0  0  0  0  0  0  0  0  0  0
    4.0669   -2.8914   -3.2912 O   0  0  0  0  0  0  0  0  0  0  0  0
    3.9205   -2.4414    0.3972 C   0  0  2  0  0  0  0  0  0  0  0  0
    4.4034   -1.0581    0.8978 C   0  0  0  0  0  0  0  0  0  0  0  0
    4.6313   -1.1846    2.4243 C   0  0  0  0  0  0  0  0  0  0  0  0
    3.9529   -2.5099    2.8390 C   0  0  2  0  0  0  0  0  0  0  0  0
    2.4632   -2.2278    3.1543 C   0  0  0  0  0  0  0  0  0  0  0  0
    4.5759   -3.2722    4.0163 C   0  0  0  0  0  0  0  0  0  0  0  0
    5.3878   -2.7640    4.7894 O   0  0  0  0  0  0  0  0  0  0  0  0
    4.0878   -4.7193    4.1871 C   0  0  0  0  0  0  0  0  0  0  0  0
    4.1671   -5.6045    2.8893 C   0  0  2  0  0  0  0  0  0  0  0  0
    5.6272   -6.1087    2.7772 C   0  0  0  0  0  0  0  0  0  0  0  0
    3.7442   -4.8230    1.5963 C   0  0  1  0  0  0  0  0  0  0  0  0
    2.2266   -5.0453    1.3983 C   0  0  1  0  0  0  0  0  0  0  0  0
    1.9351   -5.5766    0.1104 O   0  0  0  0  0  0  0  0  0  0  0  0
    1.8423   -6.0202    2.5179 C   0  0  1  0  0  0  0  0  0  0  0  0
    0.7382   -6.8887    2.3020 O   0  0  0  0  0  0  0  0  0  0  0  0
    0.3553   -7.7395    3.4060 C   0  0  0  0  0  0  0  0  0  0  0  0
   -0.5397   -6.9183    4.3537 C   0  0  0  0  0  0  0  0  0  0  0  0
   -0.4362   -8.8968    2.7731 C   0  0  0  0  0  0  0  0  0  0  0  0
    1.5681   -8.2857    4.2134 C   0  0  0  0  0  0  0  0  0  0  0  0
    1.5053   -9.3474    4.8319 O   0  0  0  0  0  0  0  0  0  0  0  0
    2.8493   -7.4459    4.2652 C   0  0  0  0  0  0  0  0  0  0  0  0
    3.1178   -6.7726    2.9033 C   0  0  2  0  0  0  0  0  0  0  0  0
    3.4603   -7.8791    1.8576 C   0  0  0  0  0  0  0  0  0  0  0  0
    4.2427   -3.3585    1.5893 C   0  0  1  0  0  0  0  0  0  0  0  0
    6.1834   -3.6250   -2.0483 H   0  0  0  0  0  0  0  0  0  0  0  0
    6.4702   -3.4165   -0.2401 H   0  0  0  0  0  0  0  0  0  0  0  0
    2.6281   -2.5283   -1.9207 H   0  0  0  0  0  0  0  0  0  0  0  0
    2.8342   -2.4025    0.2799 H   0  0  0  0  0  0  0  0  0  0  0  0
    5.3235   -0.7407    0.4052 H   0  0  0  0  0  0  0  0  0  0  0  0
    3.6474   -0.3010    0.6797 H   0  0  0  0  0  0  0  0  0  0  0  0
    5.7023   -1.2110    2.6336 H   0  0  0  0  0  0  0  0  0  0  0  0
    4.2316   -0.3253    2.9628 H   0  0  0  0  0  0  0  0  0  0  0  0
    1.9280   -1.8209    2.2981 H   0  0  0  0  0  0  0  0  0  0  0  0
    2.3786   -1.4951    3.9580 H   0  0  0  0  0  0  0  0  0  0  0  0
    1.9230   -3.1097    3.4911 H   0  0  0  0  0  0  0  0  0  0  0  0
    4.6561   -5.1879    4.9924 H   0  0  0  0  0  0  0  0  0  0  0  0
    3.0698   -4.6483    4.5586 H   0  0  0  0  0  0  0  0  0  0  0  0
    5.8217   -6.6352    1.8405 H   0  0  0  0  0  0  0  0  0  0  0  0
    5.8686   -6.7926    3.5948 H   0  0  0  0  0  0  0  0  0  0  0  0
    6.3420   -5.2838    2.8260 H   0  0  0  0  0  0  0  0  0  0  0  0
    4.2390   -5.3032    0.7523 H   0  0  0  0  0  0  0  0  0  0  0  0
    1.7010   -4.1095    1.5156 H   0  0  0  0  0  0  0  0  0  0  0  0
    2.5059   -5.1839   -0.5307 H   0  0  0  0  0  0  0  0  0  0  0  0
    1.5438   -5.3920    3.3541 H   0  0  0  0  0  0  0  0  0  0  0  0
   -0.9739   -7.5460    5.1331 H   0  0  0  0  0  0  0  0  0  0  0  0
   -1.3592   -6.4462    3.8160 H   0  0  0  0  0  0  0  0  0  0  0  0
    0.0250   -6.1305    4.8565 H   0  0  0  0  0  0  0  0  0  0  0  0
   -0.8422   -9.5821    3.5189 H   0  0  0  0  0  0  0  0  0  0  0  0
    0.2055   -9.4822    2.1100 H   0  0  0  0  0  0  0  0  0  0  0  0
   -1.2679   -8.5328    2.1709 H   0  0  0  0  0  0  0  0  0  0  0  0
    2.7097   -6.7130    5.0583 H   0  0  0  0  0  0  0  0  0  0  0  0
    3.6909   -8.0732    4.5635 H   0  0  0  0  0  0  0  0  0  0  0  0
    2.6277   -8.5654    1.6929 H   0  0  0  0  0  0  0  0  0  0  0  0
    4.3043   -8.4883    2.1890 H   0  0  0  0  0  0  0  0  0  0  0  0
    3.7132   -7.4766    0.8775 H   0  0  0  0  0  0  0  0  0  0  0  0
    5.3291   -3.4689    1.5864 H   0  0  0  0  0  0  0  0  0  0  0  0
  1  2  2  0
  1 29  1  0
  1 30  1  0
  2  3  1  0
  2  5  1  0
  3  4  2  0
  3 31  1  0
  5 28  1  0
  5  6  1  0
  5 32  1  6
  6  7  1  0
  6 33  1  0
  6 34  1  0
  7  8  1  0
  7 35  1  0
  7 36  1  0
  8 28  1  0
  8  9  1  1
  8 10  1  0
  9 37  1  0
  9 38  1  0
  9 39  1  0
 10 11  2  0
 10 12  1  0
 12 13  1  0
 12 40  1  0
 12 41  1  0
 13 26  1  0
 13 14  1  6
 13 15  1  0
 14 42  1  0
 14 43  1  0
 14 44  1  0
 15 16  1  0
 15 28  1  0
 15 45  1  6
 16 17  1  0
 16 18  1  0
 16 46  1  1
 17 47  1  0
 18 26  1  0
 18 19  1  0
 18 48  1  1
 19 20  1  0
 20 21  1  0
 20 22  1  0
 20 23  1  0
 21 49  1  0
 21 50  1  0
 21 51  1  0
 22 52  1  0
 22 53  1  0
 22 54  1  0
 23 24  2  0
 23 25  1  0
 25 26  1  0
 25 55  1  0
 25 56  1  0
 26 27  1  6
 27 57  1  0
 27 58  1  0
 27 59  1  0
 28 60  1  6
M  END
>  <i_m_ct_stereo_status>  (180) 
1

>  <s_m_source_file>  (180) 
/var/tmp/pbs.5076255.sched01/tmpl83nofxy/76c90atywu.sdf

>  <i_m_source_file_index>  (180) 
11

>  <i_lp_mmshare_version>  (180) 
48012

>  <i_f3d_flags>  (180) 
0

>  <s_epik_input>  (180) 
Tz1bQ0hdQyg9W0NIMl0pW0NASF0oW0NIMl1bQ0gyXTEpW0NAQEhdKFtDQF0xMltDSDNdKVtDQEhdM1tDQEBdKFtDSDNdKShbQ0gyXUMyPU8pW0NAXTQoW0NIM10pW0NAQEhdKFtDQEBIXTNbT0hdKU9DKFtDSDNdKShbQ0gzXSlDKD1PKVtDSDJdNA==

>  <s_epik_cmdline>  (180) 
J2VwaWtfcHl0aG9uJywgJy1waHQnLCAnMi4wJywgJy1waCcsICc3LjAnLCAnLXRuJywgJzgnLCAnLW1hJywgJzIwMCcsICctaW1hZScsICc8aW5maWxlLm1hZT4nLCAnLW9tYWUnLCAnPG91dGZpbGUubWFlPic=

>  <r_lp_tautomer_probability>  (180) 
1

>  <r_epik_Ionization_Penalty>  (180) 
4.39602e-08

>  <r_epik_Ionization_Penalty_Charging>  (180) 
0

>  <r_epik_Ionization_Penalty_Neutral>  (180) 
4.39602e-08

>  <r_epik_State_Penalty>  (180) 
-0

>  <r_epik_Charging_Adjusted_Penalty>  (180) 
0

>  <i_epik_Tot_Q>  (180) 
0

>  <i_epik_Tot_abs_Q>  (180) 
0

>  <s_lp_Force_Field>  (180) 
OPLS3e

>  <r_lp_Energy>  (180) 
57.6092

>  <b_lp_Chiralities_Consistent>  (180) 
1

>  <s_lp_Variant>  (180) 
62:0-1

>  <s_i_glide_gridfile>  (180) 
pfpi4k_grid

>  <i_i_glide_lignum>  (180) 
11

>  <i_i_glide_rotatable_bonds>  (180) 
3

>  <r_i_docking_score>  (180) 
-3.0749

>  <r_i_glide_ligand_efficiency>  (180) 
-0.109818

>  <r_i_glide_ligand_efficiency_sa>  (180) 
-0.333472

>  <r_i_glide_ligand_efficiency_ln>  (180) 
-0.709778

>  <r_i_glide_gscore>  (180) 
-3.0749

>  <r_i_glide_lipo>  (180) 
-0.227685

>  <r_i_glide_hbond>  (180) 
0

>  <r_i_glide_metal>  (180) 
-0

>  <r_i_glide_rewards>  (180) 
-0.78748

>  <r_i_glide_evdw>  (180) 
-28.1164

>  <r_i_glide_ecoul>  (180) 
-5.8829

>  <r_i_glide_erotb>  (180) 
0.258194

>  <r_i_glide_esite>  (180) 
-0.0296798

>  <r_i_glide_emodel>  (180) 
-38.7078

>  <r_i_glide_energy>  (180) 
-33.9993

>  <r_i_glide_einternal>  (180) 
4.87679

>  <r_i_glide_intrahb_reward>  (180) 
-0

>  <i_i_glide_confnum>  (180) 
2

>  <i_i_glide_posenum>  (180) 
2

>  <r_i_glide_eff_state_penalty>  (180) 
0

>  <ligand_id>  (180) 
62

>  <original_smiles>  (180) 
C=C(C=O)C1CCC2(C)C(=O)CC3(C)C(C(O)C4OC(C)(C)C(=O)CC43C)C12

>  <smiles>  (180) 
[H]OC1([H])C2([H])OC(C([H])([H])[H])(C([H])([H])[H])C(=O)C([H])([H])C2(C([H])([H])[H])C2(C([H])([H])[H])C([H])([H])C(=O)C3(C([H])([H])[H])C([H])([H])C([H])([H])C([H])(C(C([H])=O)=C([H])[H])C3([H])C12[H]

$$$$
62:0:2
     RDKit          3D

 60 63  0  0  1  0  0  0  0  0999 V2000
   -0.2506   -7.9500    1.8019 C   0  0  0  0  0  0  0  0  0  0  0  0
    0.7202   -8.2241    2.6892 C   0  0  0  0  0  0  0  0  0  0  0  0
    0.3289   -8.3207    4.1109 C   0  0  0  0  0  0  0  0  0  0  0  0
    1.1142   -8.4021    5.0515 O   0  0  0  0  0  0  0  0  0  0  0  0
    2.1778   -8.4501    2.2624 C   0  0  2  0  0  0  0  0  0  0  0  0
    2.8603   -9.7369    2.8007 C   0  0  0  0  0  0  0  0  0  0  0  0
    4.2749   -9.3158    3.2651 C   0  0  0  0  0  0  0  0  0  0  0  0
    4.5447   -7.9483    2.6089 C   0  0  2  0  0  0  0  0  0  0  0  0
    5.1173   -8.1920    1.1958 C   0  0  0  0  0  0  0  0  0  0  0  0
    5.4668   -6.9761    3.3654 C   0  0  0  0  0  0  0  0  0  0  0  0
    6.1758   -7.3231    4.3059 O   0  0  0  0  0  0  0  0  0  0  0  0
    5.4605   -5.5304    2.8427 C   0  0  0  0  0  0  0  0  0  0  0  0
    4.0367   -4.8863    2.6946 C   0  0  2  0  0  0  0  0  0  0  0  0
    3.6219   -4.3818    4.1007 C   0  0  0  0  0  0  0  0  0  0  0  0
    2.9778   -5.8978    2.1175 C   0  0  1  0  0  0  0  0  0  0  0  0
    2.9840   -5.7441    0.5751 C   0  0  1  0  0  0  0  0  0  0  0  0
    1.6932   -5.4582    0.0754 O   0  0  0  0  0  0  0  0  0  0  0  0
    3.9491   -4.5785    0.3294 C   0  0  1  0  0  0  0  0  0  0  0  0
    3.7352   -3.7570   -0.8140 O   0  0  0  0  0  0  0  0  0  0  0  0
    4.7289   -2.7507   -1.0821 C   0  0  0  0  0  0  0  0  0  0  0  0
    5.9186   -3.4104   -1.7974 C   0  0  0  0  0  0  0  0  0  0  0  0
    4.0414   -1.7344   -2.0086 C   0  0  0  0  0  0  0  0  0  0  0  0
    5.2633   -2.0503    0.2033 C   0  0  0  0  0  0  0  0  0  0  0  0
    5.7410   -0.9242    0.1692 O   0  0  0  0  0  0  0  0  0  0  0  0
    5.2590   -2.8519    1.5162 C   0  0  0  0  0  0  0  0  0  0  0  0
    4.0059   -3.7481    1.6152 C   0  0  2  0  0  0  0  0  0  0  0  0
    2.7532   -2.8342    1.7584 C   0  0  0  0  0  0  0  0  0  0  0  0
    3.1406   -7.3285    2.6810 C   0  0  1  0  0  0  0  0  0  0  0  0
   -1.2786   -7.8122    2.1112 H   0  0  0  0  0  0  0  0  0  0  0  0
   -0.0278   -7.8604    0.7492 H   0  0  0  0  0  0  0  0  0  0  0  0
   -0.7480   -8.2748    4.2854 H   0  0  0  0  0  0  0  0  0  0  0  0
    2.1768   -8.5107    1.1731 H   0  0  0  0  0  0  0  0  0  0  0  0
    2.3279  -10.2021    3.6312 H   0  0  0  0  0  0  0  0  0  0  0  0
    2.9243  -10.4881    2.0086 H   0  0  0  0  0  0  0  0  0  0  0  0
    4.2884   -9.2265    4.3506 H   0  0  0  0  0  0  0  0  0  0  0  0
    5.0236  -10.0618    3.0028 H   0  0  0  0  0  0  0  0  0  0  0  0
    4.4287   -8.7535    0.5670 H   0  0  0  0  0  0  0  0  0  0  0  0
    6.0363   -8.7750    1.2627 H   0  0  0  0  0  0  0  0  0  0  0  0
    5.3721   -7.2728    0.6737 H   0  0  0  0  0  0  0  0  0  0  0  0
    6.0774   -4.9177    3.5014 H   0  0  0  0  0  0  0  0  0  0  0  0
    5.9856   -5.5532    1.8927 H   0  0  0  0  0  0  0  0  0  0  0  0
    2.5919   -4.0200    4.1382 H   0  0  0  0  0  0  0  0  0  0  0  0
    4.2685   -3.5642    4.4260 H   0  0  0  0  0  0  0  0  0  0  0  0
    3.7030   -5.1718    4.8504 H   0  0  0  0  0  0  0  0  0  0  0  0
    1.9946   -5.5588    2.4534 H   0  0  0  0  0  0  0  0  0  0  0  0
    3.3320   -6.6396    0.0690 H   0  0  0  0  0  0  0  0  0  0  0  0
    1.8089   -5.2647   -0.8483 H   0  0  0  0  0  0  0  0  0  0  0  0
    4.9161   -5.0475    0.1731 H   0  0  0  0  0  0  0  0  0  0  0  0
    6.6421   -2.6768   -2.1520 H   0  0  0  0  0  0  0  0  0  0  0  0
    5.5957   -3.9987   -2.6567 H   0  0  0  0  0  0  0  0  0  0  0  0
    6.4550   -4.0756   -1.1196 H   0  0  0  0  0  0  0  0  0  0  0  0
    4.7163   -0.9433   -2.3327 H   0  0  0  0  0  0  0  0  0  0  0  0
    3.1980   -1.2629   -1.4993 H   0  0  0  0  0  0  0  0  0  0  0  0
    3.6478   -2.2210   -2.9014 H   0  0  0  0  0  0  0  0  0  0  0  0
    6.1746   -3.4399    1.5267 H   0  0  0  0  0  0  0  0  0  0  0  0
    5.3177   -2.1710    2.3668 H   0  0  0  0  0  0  0  0  0  0  0  0
    2.5974   -2.2006    0.8822 H   0  0  0  0  0  0  0  0  0  0  0  0
    2.8498   -2.1625    2.6138 H   0  0  0  0  0  0  0  0  0  0  0  0
    1.8287   -3.3975    1.8881 H   0  0  0  0  0  0  0  0  0  0  0  0
    2.9459   -7.1819    3.7434 H   0  0  0  0  0  0  0  0  0  0  0  0
  1  2  2  0
  1 29  1  0
  1 30  1  0
  2  3  1  0
  2  5  1  0
  3  4  2  0
  3 31  1  0
  5 28  1  0
  5  6  1  0
  5 32  1  6
  6  7  1  0
  6 33  1  0
  6 34  1  0
  7  8  1  0
  7 35  1  0
  7 36  1  0
  8 28  1  0
  8  9  1  6
  8 10  1  0
  9 37  1  0
  9 38  1  0
  9 39  1  0
 10 11  2  0
 10 12  1  0
 12 13  1  0
 12 40  1  0
 12 41  1  0
 13 26  1  0
 13 14  1  1
 13 15  1  0
 14 42  1  0
 14 43  1  0
 14 44  1  0
 15 16  1  0
 15 28  1  0
 15 45  1  1
 16 17  1  0
 16 18  1  0
 16 46  1  6
 17 47  1  0
 18 26  1  0
 18 19  1  0
 18 48  1  6
 19 20  1  0
 20 21  1  0
 20 22  1  0
 20 23  1  0
 21 49  1  0
 21 50  1  0
 21 51  1  0
 22 52  1  0
 22 53  1  0
 22 54  1  0
 23 24  2  0
 23 25  1  0
 25 26  1  0
 25 55  1  0
 25 56  1  0
 26 27  1  1
 27 57  1  0
 27 58  1  0
 27 59  1  0
 28 60  1  1
M  END
>  <i_m_ct_stereo_status>  (181) 
1

>  <s_m_source_file>  (181) 
/var/tmp/pbs.5076255.sched01/tmpl83nofxy/76c90atywu.sdf

>  <i_m_source_file_index>  (181) 
11

>  <i_lp_mmshare_version>  (181) 
48012

>  <i_f3d_flags>  (181) 
0

>  <s_epik_input>  (181) 
Tz1bQ0hdQyg9W0NIMl0pW0NASF0oW0NIMl1bQ0gyXTEpW0NAQEhdKFtDQF0xMltDSDNdKVtDQEhdM1tDQEBdKFtDSDNdKShbQ0gyXUMyPU8pW0NAXTQoW0NIM10pW0NAQEhdKFtDQEBIXTNbT0hdKU9DKFtDSDNdKShbQ0gzXSlDKD1PKVtDSDJdNA==

>  <s_epik_cmdline>  (181) 
J2VwaWtfcHl0aG9uJywgJy1waHQnLCAnMi4wJywgJy1waCcsICc3LjAnLCAnLXRuJywgJzgnLCAnLW1hJywgJzIwMCcsICctaW1hZScsICc8aW5maWxlLm1hZT4nLCAnLW9tYWUnLCAnPG91dGZpbGUubWFlPic=

>  <r_lp_tautomer_probability>  (181) 
1

>  <r_epik_Ionization_Penalty>  (181) 
4.39602e-08

>  <r_epik_Ionization_Penalty_Charging>  (181) 
0

>  <r_epik_Ionization_Penalty_Neutral>  (181) 
4.39602e-08

>  <r_epik_State_Penalty>  (181) 
-0

>  <r_epik_Charging_Adjusted_Penalty>  (181) 
0

>  <i_epik_Tot_Q>  (181) 
0

>  <i_epik_Tot_abs_Q>  (181) 
0

>  <s_lp_Force_Field>  (181) 
OPLS3e

>  <r_lp_Energy>  (181) 
57.6092

>  <b_lp_Chiralities_Consistent>  (181) 
1

>  <s_lp_Variant>  (181) 
62:0-1

>  <s_i_glide_gridfile>  (181) 
pfpi4k_grid

>  <i_i_glide_lignum>  (181) 
11

>  <i_i_glide_rotatable_bonds>  (181) 
3

>  <r_i_docking_score>  (181) 
-2.80969

>  <r_i_glide_ligand_efficiency>  (181) 
-0.100346

>  <r_i_glide_ligand_efficiency_sa>  (181) 
-0.30471

>  <r_i_glide_ligand_efficiency_ln>  (181) 
-0.64856

>  <r_i_glide_gscore>  (181) 
-2.80969

>  <r_i_glide_lipo>  (181) 
-0.304474

>  <r_i_glide_hbond>  (181) 
0

>  <r_i_glide_metal>  (181) 
-0

>  <r_i_glide_rewards>  (181) 
-0.790717

>  <r_i_glide_evdw>  (181) 
-29.0512

>  <r_i_glide_ecoul>  (181) 
-3.26784

>  <r_i_glide_erotb>  (181) 
0.258194

>  <r_i_glide_esite>  (181) 
-0.0299614

>  <r_i_glide_emodel>  (181) 
-38.178

>  <r_i_glide_energy>  (181) 
-32.319

>  <r_i_glide_einternal>  (181) 
1.29899

>  <r_i_glide_intrahb_reward>  (181) 
-0

>  <i_i_glide_confnum>  (181) 
3

>  <i_i_glide_posenum>  (181) 
25

>  <r_i_glide_eff_state_penalty>  (181) 
0

>  <ligand_id>  (181) 
62

>  <original_smiles>  (181) 
C=C(C=O)C1CCC2(C)C(=O)CC3(C)C(C(O)C4OC(C)(C)C(=O)CC43C)C12

>  <smiles>  (181) 
[H]OC1([H])C2([H])OC(C([H])([H])[H])(C([H])([H])[H])C(=O)C([H])([H])C2(C([H])([H])[H])C2(C([H])([H])[H])C([H])([H])C(=O)C3(C([H])([H])[H])C([H])([H])C([H])([H])C([H])(C(C([H])=O)=C([H])[H])C3([H])C12[H]

$$$$
63:1:0
     RDKit          3D

 94100  0  0  1  0  0  0  0  0999 V2000
    3.8543   -2.8340    0.6012 C   0  0  0  0  0  0  0  0  0  0  0  0
    3.9597   -3.7668    1.8627 C   0  0  2  0  0  0  0  0  0  0  0  0
    2.8649   -4.9344    1.9353 C   0  0  2  0  0  0  0  0  0  0  0  0
    2.3316   -5.2064    0.4974 C   0  0  0  0  0  0  0  0  0  0  0  0
    1.6394   -4.3923    2.7491 C   0  0  0  0  0  0  0  0  0  0  0  0
    1.5686   -2.8346    2.8311 C   0  0  0  0  0  0  0  0  0  0  0  0
    2.7672   -2.1834    3.6291 C   0  0  1  0  0  0  0  0  0  0  0  0
    2.7204   -0.7084    3.1051 C   0  0  0  0  0  0  0  0  0  0  0  0
    2.5148   -2.0782    5.2094 C   0  0  2  0  0  0  0  0  0  0  0  0
    2.1194   -3.4107    5.8925 C   0  0  0  0  0  0  0  0  0  0  0  0
    0.5900   -3.4214    5.9017 C   0  0  0  0  0  0  0  0  0  0  0  0
    0.2670   -1.9083    5.8922 C   0  0  0  0  0  0  0  0  0  0  0  0
   -0.8482   -1.4373    6.1700 O   0  0  0  0  0  0  0  0  0  0  0  0
    1.3938   -1.2232    5.5598 O   0  0  0  0  0  0  0  0  0  0  0  0
    4.1455   -2.9494    3.2251 C   0  0  2  0  0  0  0  0  0  0  0  0
    5.2879   -1.8835    3.0316 C   0  0  0  0  0  0  0  0  0  0  0  0
    4.8130   -3.8743    4.3512 C   0  0  0  0  0  0  0  0  0  0  0  0
    4.5333   -5.3925    4.5753 C   0  0  0  0  0  0  0  0  0  0  0  0
    4.6836   -6.4075    3.4214 C   0  0  2  0  0  0  0  0  0  0  0  0
    6.0202   -6.0520    2.6613 C   0  0  0  0  0  0  0  0  0  0  0  0
    3.3641   -6.3736    2.5209 C   0  0  1  0  0  0  0  0  0  0  0  0
    2.1661   -7.1968    3.2111 C   0  0  1  0  0  0  0  0  0  0  0  0
    0.9936   -7.3295    2.3989 O   0  0  0  0  0  0  0  0  0  0  0  0
    2.4555   -8.5963    3.8058 C   0  0  1  0  0  0  0  0  0  0  0  0
    2.4704   -9.5128    2.7364 O   0  0  0  0  0  0  0  0  0  0  0  0
    3.7193   -8.6471    4.7270 C   0  0  1  0  0  0  0  0  0  0  0  0
    3.3326   -7.8764    6.0480 C   0  0  0  0  0  0  0  0  0  0  0  0
    4.0776  -10.0720    5.2902 C   0  0  2  0  0  0  0  0  0  0  0  0
    5.3918  -10.2151    6.0851 C   0  0  0  0  0  0  0  0  0  0  0  0
    5.8358  -11.2560    5.0707 C   0  0  2  0  0  0  0  0  0  0  0  0
    6.8465  -10.9749    3.9479 C   0  0  2  0  0  0  0  0  0  0  0  0
    6.9253   -9.4933    3.4832 C   0  0  0  0  0  0  0  0  0  0  0  0
    5.6224   -8.8481    2.9752 C   0  0  0  0  0  0  0  0  0  0  0  0
    4.9183   -7.8893    3.9865 C   0  0  1  0  0  0  0  0  0  0  0  0
    6.6111  -11.9221    2.7550 C   0  0  0  0  0  0  0  0  0  0  0  0
    7.4024  -11.9833    1.7943 O   0  0  0  0  0  0  0  0  0  0  0  0
    5.3871  -12.8287    2.7767 C   0  0  0  0  0  0  0  0  0  0  0  0
    4.1543  -12.0476    3.2663 C   0  0  0  0  0  0  0  0  0  0  0  0
    4.3683  -11.5307    4.7171 C   0  0  2  0  0  0  0  0  0  0  0  0
    3.7227  -12.6250    5.5637 C   0  0  0  0  0  0  0  0  0  0  0  0
    2.9304   -2.2729    0.5209 H   0  0  0  0  0  0  0  0  0  0  0  0
    3.9517   -3.4069   -0.3174 H   0  0  0  0  0  0  0  0  0  0  0  0
    4.6667   -2.1157    0.5366 H   0  0  0  0  0  0  0  0  0  0  0  0
    4.9000   -4.2167    1.6006 H   0  0  0  0  0  0  0  0  0  0  0  0
    1.5980   -6.0033    0.4708 H   0  0  0  0  0  0  0  0  0  0  0  0
    3.1465   -5.4980   -0.1714 H   0  0  0  0  0  0  0  0  0  0  0  0
    1.8116   -4.3352    0.0780 H   0  0  0  0  0  0  0  0  0  0  0  0
    0.6838   -4.7483    2.3581 H   0  0  0  0  0  0  0  0  0  0  0  0
    1.6252   -4.8014    3.7199 H   0  0  0  0  0  0  0  0  0  0  0  0
    1.4194   -2.3767    1.8385 H   0  0  0  0  0  0  0  0  0  0  0  0
    0.6279   -2.5670    3.3018 H   0  0  0  0  0  0  0  0  0  0  0  0
    3.4161   -0.0595    3.6278 H   0  0  0  0  0  0  0  0  0  0  0  0
    1.7339   -0.2776    3.2449 H   0  0  0  0  0  0  0  0  0  0  0  0
    2.9162   -0.6224    2.0365 H   0  0  0  0  0  0  0  0  0  0  0  0
    3.4372   -1.6841    5.6675 H   0  0  0  0  0  0  0  0  0  0  0  0
    2.4451   -4.1947    5.3105 H   0  0  0  0  0  0  0  0  0  0  0  0
    2.5148   -3.5163    6.9049 H   0  0  0  0  0  0  0  0  0  0  0  0
    0.1838   -3.8538    4.9804 H   0  0  0  0  0  0  0  0  0  0  0  0
    0.1533   -4.0118    6.7237 H   0  0  0  0  0  0  0  0  0  0  0  0
    5.5219   -1.3807    3.9693 H   0  0  0  0  0  0  0  0  0  0  0  0
    5.0755   -1.0835    2.3245 H   0  0  0  0  0  0  0  0  0  0  0  0
    6.2048   -2.3360    2.6648 H   0  0  0  0  0  0  0  0  0  0  0  0
    5.8886   -3.7798    4.2703 H   0  0  0  0  0  0  0  0  0  0  0  0
    4.7106   -3.3808    5.3066 H   0  0  0  0  0  0  0  0  0  0  0  0
    5.1609   -5.6880    5.4256 H   0  0  0  0  0  0  0  0  0  0  0  0
    3.5257   -5.5413    4.8512 H   0  0  0  0  0  0  0  0  0  0  0  0
    5.9370   -6.2814    1.5929 H   0  0  0  0  0  0  0  0  0  0  0  0
    6.8709   -6.5894    3.0850 H   0  0  0  0  0  0  0  0  0  0  0  0
    6.3483   -5.0257    2.7210 H   0  0  0  0  0  0  0  0  0  0  0  0
    3.6261   -6.9569    1.6374 H   0  0  0  0  0  0  0  0  0  0  0  0
    1.8018   -6.7040    4.0964 H   0  0  0  0  0  0  0  0  0  0  0  0
    1.1524   -8.0435    1.8259 H   0  0  0  0  0  0  0  0  0  0  0  0
    1.5934   -8.9001    4.4150 H   0  0  0  0  0  0  0  0  0  0  0  0
    2.5476  -10.3682    3.1062 H   0  0  0  0  0  0  0  0  0  0  0  0
    4.2115   -7.5611    6.6096 H   0  0  0  0  0  0  0  0  0  0  0  0
    2.7191   -8.4735    6.7258 H   0  0  0  0  0  0  0  0  0  0  0  0
    2.6741   -7.0254    5.9414 H   0  0  0  0  0  0  0  0  0  0  0  0
    3.2917  -10.3175    6.0081 H   0  0  0  0  0  0  0  0  0  0  0  0
    6.0499   -9.3374    6.0936 H   0  0  0  0  0  0  0  0  0  0  0  0
    5.2657  -10.6115    7.0830 H   0  0  0  0  0  0  0  0  0  0  0  0
    6.1975  -12.1240    5.6354 H   0  0  0  0  0  0  0  0  0  0  0  0
    7.8497  -11.2278    4.2966 H   0  0  0  0  0  0  0  0  0  0  0  0
    7.3975   -8.8977    4.2599 H   0  0  0  0  0  0  0  0  0  0  0  0
    7.6312   -9.4542    2.6560 H   0  0  0  0  0  0  0  0  0  0  0  0
    5.8609   -8.3550    2.0417 H   0  0  0  0  0  0  0  0  0  0  0  0
    4.9258   -9.5624    2.5931 H   0  0  0  0  0  0  0  0  0  0  0  0
    5.6491   -7.7180    4.7682 H   0  0  0  0  0  0  0  0  0  0  0  0
    5.2224  -13.2219    1.7743 H   0  0  0  0  0  0  0  0  0  0  0  0
    5.5878  -13.6904    3.4109 H   0  0  0  0  0  0  0  0  0  0  0  0
    3.9905  -11.2882    2.5386 H   0  0  0  0  0  0  0  0  0  0  0  0
    3.2677  -12.6777    3.1875 H   0  0  0  0  0  0  0  0  0  0  0  0
    4.1024  -13.6250    5.3442 H   0  0  0  0  0  0  0  0  0  0  0  0
    2.6471  -12.6348    5.4088 H   0  0  0  0  0  0  0  0  0  0  0  0
    3.8614  -12.4888    6.6437 H   0  0  0  0  0  0  0  0  0  0  0  0
  1  2  1  0
  1 41  1  0
  1 42  1  0
  1 43  1  0
  2 15  1  0
  2  3  1  0
  2 44  1  6
  3 21  1  0
  3  4  1  6
  3  5  1  0
  4 45  1  0
  4 46  1  0
  4 47  1  0
  5  6  1  0
  5 48  1  0
  5 49  1  0
  6  7  1  0
  6 50  1  0
  6 51  1  0
  7  8  1  6
  7  9  1  0
  7 15  1  0
  8 52  1  0
  8 53  1  0
  8 54  1  0
  9 14  1  0
  9 10  1  0
  9 55  1  1
 10 11  1  0
 10 56  1  0
 10 57  1  0
 11 12  1  0
 11 58  1  0
 11 59  1  0
 12 13  2  0
 12 14  1  0
 15 16  1  6
 15 17  1  0
 16 60  1  0
 16 61  1  0
 16 62  1  0
 17 18  1  0
 17 63  1  0
 17 64  1  0
 18 19  1  0
 18 65  1  0
 18 66  1  0
 19 34  1  0
 19 20  1  6
 19 21  1  0
 20 67  1  0
 20 68  1  0
 20 69  1  0
 21 22  1  0
 21 70  1  6
 22 23  1  0
 22 24  1  0
 22 71  1  1
 23 72  1  0
 24 25  1  0
 24 26  1  0
 24 73  1  1
 25 74  1  0
 26 34  1  0
 26 27  1  1
 26 28  1  0
 27 75  1  0
 27 76  1  0
 27 77  1  0
 28 39  1  0
 28 29  1  0
 28 78  1  1
 29 30  1  0
 29 79  1  0
 29 80  1  0
 30 39  1  0
 30 31  1  0
 30 81  1  1
 31 32  1  0
 31 35  1  0
 31 82  1  1
 32 33  1  0
 32 83  1  0
 32 84  1  0
 33 34  1  0
 33 85  1  0
 33 86  1  0
 34 87  1  1
 35 36  2  0
 35 37  1  0
 37 38  1  0
 37 88  1  0
 37 89  1  0
 38 39  1  0
 38 90  1  0
 38 91  1  0
 39 40  1  1
 40 92  1  0
 40 93  1  0
 40 94  1  0
M  END
>  <i_m_ct_stereo_status>  (182) 
1

>  <s_m_source_file>  (182) 
/var/tmp/pbs.5076255.sched01/tmpl83nofxy/76c90atywu.sdf

>  <i_m_source_file_index>  (182) 
13

>  <i_lp_mmshare_version>  (182) 
48012

>  <i_f3d_flags>  (182) 
0

>  <s_epik_input>  (182) 
Tz1DKE8xKVtDSDJdW0NIMl1bQ0BIXTFbQ0BdKFtDSDNdKShbQ0gyXVtDSDJdMilbQ0BdKFtDSDNdKShbQ0BASF0zW0NIM10pW0NIMl1bQ0gyXVtDQF0oW0NIM10pKFtDQEBIXTRDMjNbQ0gzXSlbQ0BIXTVbQ0BAXShbQ0gzXSkoW0NASF0oW09IXSlbQ0BASF00W09IXSlbQ0BIXTZbQ0BdNyhbQ0gzXSlbQ0BIXShbQ0gyXTYpW0NASF0oW0NIMl1bQ0gyXTUpQyg9TylbQ0gyXVtDSDJdNw==

>  <s_epik_cmdline>  (182) 
J2VwaWtfcHl0aG9uJywgJy1waHQnLCAnMi4wJywgJy1waCcsICc3LjAnLCAnLXRuJywgJzgnLCAnLW1hJywgJzIwMCcsICctaW1hZScsICc8aW5maWxlLm1hZT4nLCAnLW9tYWUnLCAnPG91dGZpbGUubWFlPic=

>  <r_lp_tautomer_probability>  (182) 
1

>  <r_epik_Ionization_Penalty>  (182) 
1.73294e-06

>  <r_epik_Ionization_Penalty_Charging>  (182) 
0

>  <r_epik_Ionization_Penalty_Neutral>  (182) 
1.73294e-06

>  <r_epik_State_Penalty>  (182) 
-0

>  <r_epik_Charging_Adjusted_Penalty>  (182) 
0

>  <i_epik_Tot_Q>  (182) 
0

>  <i_epik_Tot_abs_Q>  (182) 
0

>  <s_epik_Chemistry_Notes>  (182) 
This compound has an ester and may undergo hydrolysis at high or low pH.

>  <s_lp_Force_Field>  (182) 
OPLS3e

>  <r_lp_Energy>  (182) 
191.747

>  <b_lp_Chiralities_Consistent>  (182) 
1

>  <s_lp_Variant>  (182) 
63:0-2

>  <s_i_glide_gridfile>  (182) 
pfpi4k_grid

>  <i_i_glide_lignum>  (182) 
13

>  <i_i_glide_rotatable_bonds>  (182) 
3

>  <r_i_docking_score>  (182) 
-2.20278

>  <r_i_glide_ligand_efficiency>  (182) 
-0.0550695

>  <r_i_glide_ligand_efficiency_sa>  (182) 
-0.188335

>  <r_i_glide_ligand_efficiency_ln>  (182) 
-0.469789

>  <r_i_glide_gscore>  (182) 
-2.20278

>  <r_i_glide_lipo>  (182) 
-0.143231

>  <r_i_glide_hbond>  (182) 
-0.093813

>  <r_i_glide_metal>  (182) 
-0

>  <r_i_glide_rewards>  (182) 
0

>  <r_i_glide_evdw>  (182) 
-21.1814

>  <r_i_glide_ecoul>  (182) 
-6.26251

>  <r_i_glide_erotb>  (182) 
0.0674405

>  <r_i_glide_esite>  (182) 
-0.0562462

>  <r_i_glide_emodel>  (182) 
-25.2315

>  <r_i_glide_energy>  (182) 
-27.4439

>  <r_i_glide_einternal>  (182) 
4.83061

>  <r_i_glide_intrahb_reward>  (182) 
-0

>  <i_i_glide_confnum>  (182) 
2

>  <i_i_glide_posenum>  (182) 
14

>  <r_i_glide_eff_state_penalty>  (182) 
0

>  <ligand_id>  (182) 
63

>  <original_smiles>  (182) 
CC1C2(C)CCC(C)(C3CCC(=O)O3)C1(C)CCC1(C)C2C(O)C(O)C2(C)C3CC4C(CCC12)C(=O)CCC43C

>  <smiles>  (182) 
[H]OC1([H])C([H])(O[H])C2(C([H])([H])[H])C3([H])C([H])([H])C4([H])C([H])(C(=O)C([H])([H])C([H])([H])C43C([H])([H])[H])C([H])([H])C([H])([H])C2([H])C2(C([H])([H])[H])C([H])([H])C([H])([H])C3(C([H])([H])[H])C([H])(C([H])([H])[H])C(C([H])([H])[H])(C([H])([H])C([H])([H])C3(C([H])([H])[H])C3([H])OC(=O)C([H])([H])C3([H])[H])C12[H]

$$$$
63:1:1
     RDKit          3D

 94100  0  0  1  0  0  0  0  0999 V2000
    3.8256   -3.0344    0.4448 C   0  0  0  0  0  0  0  0  0  0  0  0
    3.9633   -3.9473    1.7198 C   0  0  2  0  0  0  0  0  0  0  0  0
    2.8748   -5.1092    1.8358 C   0  0  2  0  0  0  0  0  0  0  0  0
    2.3102   -5.4150    0.4252 C   0  0  0  0  0  0  0  0  0  0  0  0
    1.6633   -4.5611    2.6706 C   0  0  0  0  0  0  0  0  0  0  0  0
    1.6038   -2.9923    2.7259 C   0  0  0  0  0  0  0  0  0  0  0  0
    2.8159   -2.3353    3.4955 C   0  0  1  0  0  0  0  0  0  0  0  0
    2.7557   -0.8673    2.9442 C   0  0  0  0  0  0  0  0  0  0  0  0
    2.5989   -2.1878    5.0792 C   0  0  2  0  0  0  0  0  0  0  0  0
    2.2276   -3.5145    5.8022 C   0  0  0  0  0  0  0  0  0  0  0  0
    0.6898   -3.5254    5.8543 C   0  0  0  0  0  0  0  0  0  0  0  0
    0.3627   -2.0138    5.8223 C   0  0  0  0  0  0  0  0  0  0  0  0
   -0.7449   -1.5413    6.1260 O   0  0  0  0  0  0  0  0  0  0  0  0
    1.4814   -1.3329    5.4402 O   0  0  0  0  0  0  0  0  0  0  0  0
    4.1790   -3.1074    3.0642 C   0  0  2  0  0  0  0  0  0  0  0  0
    5.3133   -2.0434    2.8263 C   0  0  0  0  0  0  0  0  0  0  0  0
    4.8803   -4.0127    4.1855 C   0  0  0  0  0  0  0  0  0  0  0  0
    4.6122   -5.5298    4.4419 C   0  0  0  0  0  0  0  0  0  0  0  0
    4.7288   -6.5615    3.2994 C   0  0  2  0  0  0  0  0  0  0  0  0
    6.0471   -6.2173    2.5013 C   0  0  0  0  0  0  0  0  0  0  0  0
    3.3869   -6.5403    2.4358 C   0  0  1  0  0  0  0  0  0  0  0  0
    2.2057   -7.3461    3.1712 C   0  0  1  0  0  0  0  0  0  0  0  0
    1.0156   -7.4836    2.3792 O   0  0  0  0  0  0  0  0  0  0  0  0
    2.5077   -8.7428    3.7685 C   0  0  1  0  0  0  0  0  0  0  0  0
    2.4800   -9.6517    2.6712 O   0  0  0  0  0  0  0  0  0  0  0  0
    3.7959   -8.7800    4.6651 C   0  0  1  0  0  0  0  0  0  0  0  0
    3.4437   -7.9863    5.9871 C   0  0  0  0  0  0  0  0  0  0  0  0
    4.1730  -10.1843    5.2443 C   0  0  2  0  0  0  0  0  0  0  0  0
    5.5033  -10.3240    6.0137 C   0  0  0  0  0  0  0  0  0  0  0  0
    5.9229  -11.3690    5.0022 C   0  0  2  0  0  0  0  0  0  0  0  0
    6.9054  -11.1214    3.8479 C   0  0  2  0  0  0  0  0  0  0  0  0
    6.9674   -9.6402    3.3658 C   0  0  0  0  0  0  0  0  0  0  0  0
    5.6547   -9.0098    2.8759 C   0  0  0  0  0  0  0  0  0  0  0  0
    4.9776   -8.0306    3.8849 C   0  0  1  0  0  0  0  0  0  0  0  0
    6.6524  -12.0740    2.6633 C   0  0  0  0  0  0  0  0  0  0  0  0
    7.3959  -12.1728    1.7126 O   0  0  0  0  0  0  0  0  0  0  0  0
    5.4090  -12.9931    2.7432 C   0  0  0  0  0  0  0  0  0  0  0  0
    4.1948  -12.1965    3.2612 C   0  0  0  0  0  0  0  0  0  0  0  0
    4.4535  -11.6588    4.6944 C   0  0  2  0  0  0  0  0  0  0  0  0
    3.8313  -12.7353    5.5720 C   0  0  0  0  0  0  0  0  0  0  0  0
    2.9022   -2.4723    0.3753 H   0  0  0  0  0  0  0  0  0  0  0  0
    3.8987   -3.6232   -0.4661 H   0  0  0  0  0  0  0  0  0  0  0  0
    4.6354   -2.3174    0.3491 H   0  0  0  0  0  0  0  0  0  0  0  0
    4.8967   -4.3995    1.4404 H   0  0  0  0  0  0  0  0  0  0  0  0
    1.5643   -6.2039    0.4258 H   0  0  0  0  0  0  0  0  0  0  0  0
    3.1018   -5.7120   -0.2624 H   0  0  0  0  0  0  0  0  0  0  0  0
    1.8147   -4.5385   -0.0068 H   0  0  0  0  0  0  0  0  0  0  0  0
    0.7080   -4.9155    2.2665 H   0  0  0  0  0  0  0  0  0  0  0  0
    1.6564   -4.9595    3.6392 H   0  0  0  0  0  0  0  0  0  0  0  0
    1.4491   -2.5488    1.7348 H   0  0  0  0  0  0  0  0  0  0  0  0
    0.6713   -2.7182    3.2048 H   0  0  0  0  0  0  0  0  0  0  0  0
    3.4648   -0.2101    3.4390 H   0  0  0  0  0  0  0  0  0  0  0  0
    1.7734   -0.4349    3.1023 H   0  0  0  0  0  0  0  0  0  0  0  0
    2.9236   -0.7961    1.8686 H   0  0  0  0  0  0  0  0  0  0  0  0
    3.5318   -1.7867    5.5036 H   0  0  0  0  0  0  0  0  0  0  0  0
    2.5367   -4.3092    5.2299 H   0  0  0  0  0  0  0  0  0  0  0  0
    2.6457   -3.5942    6.8112 H   0  0  0  0  0  0  0  0  0  0  0  0
    0.2697   -3.9768    4.9508 H   0  0  0  0  0  0  0  0  0  0  0  0
    0.2787   -4.1077    6.6923 H   0  0  0  0  0  0  0  0  0  0  0  0
    5.5758   -1.5259    3.7487 H   0  0  0  0  0  0  0  0  0  0  0  0
    5.0877   -1.2554    2.1086 H   0  0  0  0  0  0  0  0  0  0  0  0
    6.2168   -2.5078    2.4421 H   0  0  0  0  0  0  0  0  0  0  0  0
    5.9517   -3.9173    4.0759 H   0  0  0  0  0  0  0  0  0  0  0  0
    4.7997   -3.5023    5.1333 H   0  0  0  0  0  0  0  0  0  0  0  0
    5.2714   -5.8103    5.2763 H   0  0  0  0  0  0  0  0  0  0  0  0
    3.6110   -5.6783    4.7426 H   0  0  0  0  0  0  0  0  0  0  0  0
    5.9352   -6.4644    1.4403 H   0  0  0  0  0  0  0  0  0  0  0  0
    6.9049   -6.7474    2.9164 H   0  0  0  0  0  0  0  0  0  0  0  0
    6.3717   -5.1904    2.5383 H   0  0  0  0  0  0  0  0  0  0  0  0
    3.6202   -7.1340    1.5502 H   0  0  0  0  0  0  0  0  0  0  0  0
    1.8633   -6.8476    4.0625 H   0  0  0  0  0  0  0  0  0  0  0  0
    1.1690   -8.1614    1.7767 H   0  0  0  0  0  0  0  0  0  0  0  0
    1.6685   -9.0319    4.4078 H   0  0  0  0  0  0  0  0  0  0  0  0
    3.2527   -9.5792    2.1929 H   0  0  0  0  0  0  0  0  0  0  0  0
    4.3363   -7.6606    6.5222 H   0  0  0  0  0  0  0  0  0  0  0  0
    2.8488   -8.5751    6.6904 H   0  0  0  0  0  0  0  0  0  0  0  0
    2.7781   -7.1406    5.8899 H   0  0  0  0  0  0  0  0  0  0  0  0
    3.4065  -10.4269    5.9863 H   0  0  0  0  0  0  0  0  0  0  0  0
    6.1600   -9.4383    5.9924 H   0  0  0  0  0  0  0  0  0  0  0  0
    5.3979  -10.7055    7.0185 H   0  0  0  0  0  0  0  0  0  0  0  0
    6.2935  -12.2332    5.5765 H   0  0  0  0  0  0  0  0  0  0  0  0
    7.9180  -11.3657    4.1736 H   0  0  0  0  0  0  0  0  0  0  0  0
    7.4606   -9.0349    4.1181 H   0  0  0  0  0  0  0  0  0  0  0  0
    7.6447   -9.6148    2.5161 H   0  0  0  0  0  0  0  0  0  0  0  0
    5.8709   -8.5304    1.9292 H   0  0  0  0  0  0  0  0  0  0  0  0
    4.9535   -9.7352    2.5280 H   0  0  0  0  0  0  0  0  0  0  0  0
    5.7256   -7.8478    4.6460 H   0  0  0  0  0  0  0  0  0  0  0  0
    5.2033  -13.4008    1.7599 H   0  0  0  0  0  0  0  0  0  0  0  0
    5.6259  -13.8411    3.3904 H   0  0  0  0  0  0  0  0  0  0  0  0
    3.9962  -11.4444    2.5356 H   0  0  0  0  0  0  0  0  0  0  0  0
    3.3068  -12.8263    3.2188 H   0  0  0  0  0  0  0  0  0  0  0  0
    4.2039  -13.7405    5.3604 H   0  0  0  0  0  0  0  0  0  0  0  0
    2.7567  -12.7457    5.4235 H   0  0  0  0  0  0  0  0  0  0  0  0
    3.9876  -12.5817    6.6491 H   0  0  0  0  0  0  0  0  0  0  0  0
  1  2  1  0
  1 41  1  0
  1 42  1  0
  1 43  1  0
  2 15  1  0
  2  3  1  0
  2 44  1  6
  3 21  1  0
  3  4  1  6
  3  5  1  0
  4 45  1  0
  4 46  1  0
  4 47  1  0
  5  6  1  0
  5 48  1  0
  5 49  1  0
  6  7  1  0
  6 50  1  0
  6 51  1  0
  7  8  1  6
  7  9  1  0
  7 15  1  0
  8 52  1  0
  8 53  1  0
  8 54  1  0
  9 14  1  0
  9 10  1  0
  9 55  1  1
 10 11  1  0
 10 56  1  0
 10 57  1  0
 11 12  1  0
 11 58  1  0
 11 59  1  0
 12 13  2  0
 12 14  1  0
 15 16  1  6
 15 17  1  0
 16 60  1  0
 16 61  1  0
 16 62  1  0
 17 18  1  0
 17 63  1  0
 17 64  1  0
 18 19  1  0
 18 65  1  0
 18 66  1  0
 19 34  1  0
 19 20  1  6
 19 21  1  0
 20 67  1  0
 20 68  1  0
 20 69  1  0
 21 22  1  0
 21 70  1  6
 22 23  1  0
 22 24  1  0
 22 71  1  1
 23 72  1  0
 24 25  1  0
 24 26  1  0
 24 73  1  1
 25 74  1  0
 26 34  1  0
 26 27  1  1
 26 28  1  0
 27 75  1  0
 27 76  1  0
 27 77  1  0
 28 39  1  0
 28 29  1  0
 28 78  1  1
 29 30  1  0
 29 79  1  0
 29 80  1  0
 30 39  1  0
 30 31  1  0
 30 81  1  1
 31 32  1  0
 31 35  1  0
 31 82  1  1
 32 33  1  0
 32 83  1  0
 32 84  1  0
 33 34  1  0
 33 85  1  0
 33 86  1  0
 34 87  1  1
 35 36  2  0
 35 37  1  0
 37 38  1  0
 37 88  1  0
 37 89  1  0
 38 39  1  0
 38 90  1  0
 38 91  1  0
 39 40  1  1
 40 92  1  0
 40 93  1  0
 40 94  1  0
M  END
>  <i_m_ct_stereo_status>  (183) 
1

>  <s_m_source_file>  (183) 
/var/tmp/pbs.5076255.sched01/tmpl83nofxy/76c90atywu.sdf

>  <i_m_source_file_index>  (183) 
13

>  <i_lp_mmshare_version>  (183) 
48012

>  <i_f3d_flags>  (183) 
0

>  <s_epik_input>  (183) 
Tz1DKE8xKVtDSDJdW0NIMl1bQ0BIXTFbQ0BdKFtDSDNdKShbQ0gyXVtDSDJdMilbQ0BdKFtDSDNdKShbQ0BASF0zW0NIM10pW0NIMl1bQ0gyXVtDQF0oW0NIM10pKFtDQEBIXTRDMjNbQ0gzXSlbQ0BIXTVbQ0BAXShbQ0gzXSkoW0NASF0oW09IXSlbQ0BASF00W09IXSlbQ0BIXTZbQ0BdNyhbQ0gzXSlbQ0BIXShbQ0gyXTYpW0NASF0oW0NIMl1bQ0gyXTUpQyg9TylbQ0gyXVtDSDJdNw==

>  <s_epik_cmdline>  (183) 
J2VwaWtfcHl0aG9uJywgJy1waHQnLCAnMi4wJywgJy1waCcsICc3LjAnLCAnLXRuJywgJzgnLCAnLW1hJywgJzIwMCcsICctaW1hZScsICc8aW5maWxlLm1hZT4nLCAnLW9tYWUnLCAnPG91dGZpbGUubWFlPic=

>  <r_lp_tautomer_probability>  (183) 
1

>  <r_epik_Ionization_Penalty>  (183) 
1.73294e-06

>  <r_epik_Ionization_Penalty_Charging>  (183) 
0

>  <r_epik_Ionization_Penalty_Neutral>  (183) 
1.73294e-06

>  <r_epik_State_Penalty>  (183) 
-0

>  <r_epik_Charging_Adjusted_Penalty>  (183) 
0

>  <i_epik_Tot_Q>  (183) 
0

>  <i_epik_Tot_abs_Q>  (183) 
0

>  <s_epik_Chemistry_Notes>  (183) 
This compound has an ester and may undergo hydrolysis at high or low pH.

>  <s_lp_Force_Field>  (183) 
OPLS3e

>  <r_lp_Energy>  (183) 
191.747

>  <b_lp_Chiralities_Consistent>  (183) 
1

>  <s_lp_Variant>  (183) 
63:0-2

>  <s_i_glide_gridfile>  (183) 
pfpi4k_grid

>  <i_i_glide_lignum>  (183) 
13

>  <i_i_glide_rotatable_bonds>  (183) 
3

>  <r_i_docking_score>  (183) 
-2.03905

>  <r_i_glide_ligand_efficiency>  (183) 
-0.0509762

>  <r_i_glide_ligand_efficiency_sa>  (183) 
-0.174336

>  <r_i_glide_ligand_efficiency_ln>  (183) 
-0.434869

>  <r_i_glide_gscore>  (183) 
-2.03905

>  <r_i_glide_lipo>  (183) 
-0.13945

>  <r_i_glide_hbond>  (183) 
-0.120526

>  <r_i_glide_metal>  (183) 
-0

>  <r_i_glide_rewards>  (183) 
0

>  <r_i_glide_evdw>  (183) 
-21.9279

>  <r_i_glide_ecoul>  (183) 
-5.45693

>  <r_i_glide_erotb>  (183) 
0.0674405

>  <r_i_glide_esite>  (183) 
-0.0571158

>  <r_i_glide_emodel>  (183) 
-24.8696

>  <r_i_glide_energy>  (183) 
-27.3848

>  <r_i_glide_einternal>  (183) 
4.37379

>  <r_i_glide_intrahb_reward>  (183) 
-0

>  <i_i_glide_confnum>  (183) 
2

>  <i_i_glide_posenum>  (183) 
5

>  <r_i_glide_eff_state_penalty>  (183) 
0

>  <ligand_id>  (183) 
63

>  <original_smiles>  (183) 
CC1C2(C)CCC(C)(C3CCC(=O)O3)C1(C)CCC1(C)C2C(O)C(O)C2(C)C3CC4C(CCC12)C(=O)CCC43C

>  <smiles>  (183) 
[H]OC1([H])C([H])(O[H])C2(C([H])([H])[H])C3([H])C([H])([H])C4([H])C([H])(C(=O)C([H])([H])C([H])([H])C43C([H])([H])[H])C([H])([H])C([H])([H])C2([H])C2(C([H])([H])[H])C([H])([H])C([H])([H])C3(C([H])([H])[H])C([H])(C([H])([H])[H])C(C([H])([H])[H])(C([H])([H])C([H])([H])C3(C([H])([H])[H])C3([H])OC(=O)C([H])([H])C3([H])[H])C12[H]

$$$$
63:1:2
     RDKit          3D

 94100  0  0  1  0  0  0  0  0999 V2000
    4.7266   -1.0496    2.9073 C   0  0  0  0  0  0  0  0  0  0  0  0
    4.2200   -2.2586    3.7751 C   0  0  2  0  0  0  0  0  0  0  0  0
    3.2679   -3.2859    3.0048 C   0  0  2  0  0  0  0  0  0  0  0  0
    3.5114   -3.1590    1.4794 C   0  0  0  0  0  0  0  0  0  0  0  0
    1.7840   -2.8248    3.2303 C   0  0  0  0  0  0  0  0  0  0  0  0
    1.6332   -1.3382    3.6660 C   0  0  0  0  0  0  0  0  0  0  0  0
    2.2691   -1.0244    5.0794 C   0  0  1  0  0  0  0  0  0  0  0  0
    2.4454    0.5304    4.9987 C   0  0  0  0  0  0  0  0  0  0  0  0
    1.2705   -1.2616    6.3079 C   0  0  2  0  0  0  0  0  0  0  0  0
    0.6507   -2.6853    6.3436 C   0  0  0  0  0  0  0  0  0  0  0  0
   -0.6928   -2.5575    5.6045 C   0  0  0  0  0  0  0  0  0  0  0  0
   -1.0204   -1.0727    5.8113 C   0  0  0  0  0  0  0  0  0  0  0  0
   -2.1553   -0.5990    5.6630 O   0  0  0  0  0  0  0  0  0  0  0  0
    0.0902   -0.4300    6.2665 O   0  0  0  0  0  0  0  0  0  0  0  0
    3.6888   -1.8119    5.2140 C   0  0  2  0  0  0  0  0  0  0  0  0
    4.7458   -0.8559    5.8787 C   0  0  0  0  0  0  0  0  0  0  0  0
    3.7459   -3.0382    6.2448 C   0  0  0  0  0  0  0  0  0  0  0  0
    3.4178   -4.5329    5.9030 C   0  0  0  0  0  0  0  0  0  0  0  0
    4.1514   -5.2561    4.7481 C   0  0  2  0  0  0  0  0  0  0  0  0
    5.6751   -4.8730    4.8496 C   0  0  0  0  0  0  0  0  0  0  0  0
    3.4414   -4.8689    3.3691 C   0  0  1  0  0  0  0  0  0  0  0  0
    2.0840   -5.7082    3.1561 C   0  0  1  0  0  0  0  0  0  0  0  0
    1.4704   -5.5214    1.8779 O   0  0  0  0  0  0  0  0  0  0  0  0
    2.0860   -7.2300    3.4293 C   0  0  1  0  0  0  0  0  0  0  0  0
    2.6396   -7.8763    2.3057 O   0  0  0  0  0  0  0  0  0  0  0  0
    2.7250   -7.6274    4.7995 C   0  0  1  0  0  0  0  0  0  0  0  0
    1.7157   -7.1523    5.9149 C   0  0  0  0  0  0  0  0  0  0  0  0
    2.7924   -9.1765    5.0784 C   0  0  2  0  0  0  0  0  0  0  0  0
    3.5494   -9.6401    6.3395 C   0  0  0  0  0  0  0  0  0  0  0  0
    4.4589  -10.4560    5.4367 C   0  0  2  0  0  0  0  0  0  0  0  0
    5.8864  -10.0204    5.0622 C   0  0  2  0  0  0  0  0  0  0  0  0
    6.1502   -8.4887    5.0886 C   0  0  0  0  0  0  0  0  0  0  0  0
    5.2501   -7.6058    4.2019 C   0  0  0  0  0  0  0  0  0  0  0  0
    4.1127   -6.8460    4.9553 C   0  0  1  0  0  0  0  0  0  0  0  0
    6.3029  -10.6244    3.7077 C   0  0  0  0  0  0  0  0  0  0  0  0
    7.4617  -10.5224    3.2814 O   0  0  0  0  0  0  0  0  0  0  0  0
    5.2512  -11.3687    2.8899 C   0  0  0  0  0  0  0  0  0  0  0  0
    3.9137  -10.6075    2.9090 C   0  0  0  0  0  0  0  0  0  0  0  0
    3.3625  -10.4799    4.3589 C   0  0  2  0  0  0  0  0  0  0  0  0
    2.4094  -11.6799    4.4732 C   0  0  0  0  0  0  0  0  0  0  0  0
    3.9442   -0.3957    2.5396 H   0  0  0  0  0  0  0  0  0  0  0  0
    5.2792   -1.3971    2.0383 H   0  0  0  0  0  0  0  0  0  0  0  0
    5.4466   -0.4261    3.4287 H   0  0  0  0  0  0  0  0  0  0  0  0
    5.1772   -2.7313    3.8929 H   0  0  0  0  0  0  0  0  0  0  0  0
    2.9061   -3.8424    0.8939 H   0  0  0  0  0  0  0  0  0  0  0  0
    4.5541   -3.3579    1.2307 H   0  0  0  0  0  0  0  0  0  0  0  0
    3.2427   -2.1640    1.1051 H   0  0  0  0  0  0  0  0  0  0  0  0
    1.1816   -2.9397    2.3232 H   0  0  0  0  0  0  0  0  0  0  0  0
    1.3055   -3.4534    3.9275 H   0  0  0  0  0  0  0  0  0  0  0  0
    1.9580   -0.6566    2.8658 H   0  0  0  0  0  0  0  0  0  0  0  0
    0.5748   -1.1028    3.6778 H   0  0  0  0  0  0  0  0  0  0  0  0
    2.7755    0.9621    5.9394 H   0  0  0  0  0  0  0  0  0  0  0  0
    1.5066    1.0170    4.7505 H   0  0  0  0  0  0  0  0  0  0  0  0
    3.1413    0.8431    4.2226 H   0  0  0  0  0  0  0  0  0  0  0  0
    1.8300   -1.0862    7.2389 H   0  0  0  0  0  0  0  0  0  0  0  0
    1.2367   -3.3094    5.8189 H   0  0  0  0  0  0  0  0  0  0  0  0
    0.5012   -3.0758    7.3601 H   0  0  0  0  0  0  0  0  0  0  0  0
   -0.5729   -2.7303    4.5280 H   0  0  0  0  0  0  0  0  0  0  0  0
   -1.4420   -3.2785    5.9498 H   0  0  0  0  0  0  0  0  0  0  0  0
    4.4772   -0.6167    6.9079 H   0  0  0  0  0  0  0  0  0  0  0  0
    4.8911    0.1051    5.3885 H   0  0  0  0  0  0  0  0  0  0  0  0
    5.7377   -1.3057    5.9032 H   0  0  0  0  0  0  0  0  0  0  0  0
    4.7190   -3.0463    6.7227 H   0  0  0  0  0  0  0  0  0  0  0  0
    3.1659   -2.7797    7.1201 H   0  0  0  0  0  0  0  0  0  0  0  0
    3.5440   -5.0852    6.8435 H   0  0  0  0  0  0  0  0  0  0  0  0
    2.4228   -4.6421    5.6091 H   0  0  0  0  0  0  0  0  0  0  0  0
    6.1343   -4.8341    3.8579 H   0  0  0  0  0  0  0  0  0  0  0  0
    6.2211   -5.5802    5.4763 H   0  0  0  0  0  0  0  0  0  0  0  0
    5.9067   -3.9291    5.3210 H   0  0  0  0  0  0  0  0  0  0  0  0
    4.1256   -5.2535    2.6093 H   0  0  0  0  0  0  0  0  0  0  0  0
    1.3167   -5.3981    3.8444 H   0  0  0  0  0  0  0  0  0  0  0  0
    2.0937   -5.7950    1.2474 H   0  0  0  0  0  0  0  0  0  0  0  0
    1.0435   -7.5740    3.4451 H   0  0  0  0  0  0  0  0  0  0  0  0
    2.4794   -8.7916    2.4061 H   0  0  0  0  0  0  0  0  0  0  0  0
    2.1935   -7.0729    6.8916 H   0  0  0  0  0  0  0  0  0  0  0  0
    0.8626   -7.8243    6.0355 H   0  0  0  0  0  0  0  0  0  0  0  0
    1.1736   -6.2375    5.7273 H   0  0  0  0  0  0  0  0  0  0  0  0
    1.7623   -9.4984    5.2374 H   0  0  0  0  0  0  0  0  0  0  0  0
    4.0951   -8.8655    6.8898 H   0  0  0  0  0  0  0  0  0  0  0  0
    2.9581  -10.2451    7.0182 H   0  0  0  0  0  0  0  0  0  0  0  0
    4.5207  -11.4633    5.8643 H   0  0  0  0  0  0  0  0  0  0  0  0
    6.5902  -10.4526    5.7766 H   0  0  0  0  0  0  0  0  0  0  0  0
    6.1612   -8.1440    6.1192 H   0  0  0  0  0  0  0  0  0  0  0  0
    7.1729   -8.3336    4.7477 H   0  0  0  0  0  0  0  0  0  0  0  0
    5.9050   -6.9334    3.6615 H   0  0  0  0  0  0  0  0  0  0  0  0
    4.8520   -8.1318    3.3625 H   0  0  0  0  0  0  0  0  0  0  0  0
    4.3574   -6.9424    6.0072 H   0  0  0  0  0  0  0  0  0  0  0  0
    5.6113  -11.4771    1.8656 H   0  0  0  0  0  0  0  0  0  0  0  0
    5.1349  -12.3742    3.2916 H   0  0  0  0  0  0  0  0  0  0  0  0
    4.1123   -9.6860    2.4173 H   0  0  0  0  0  0  0  0  0  0  0  0
    3.1974  -11.1065    2.2546 H   0  0  0  0  0  0  0  0  0  0  0  0
    2.8947  -12.6274    4.2318 H   0  0  0  0  0  0  0  0  0  0  0  0
    1.5407  -11.5898    3.8246 H   0  0  0  0  0  0  0  0  0  0  0  0
    2.0127  -11.8081    5.4850 H   0  0  0  0  0  0  0  0  0  0  0  0
  1  2  1  0
  1 41  1  0
  1 42  1  0
  1 43  1  0
  2 15  1  0
  2  3  1  0
  2 44  1  1
  3 21  1  0
  3  4  1  6
  3  5  1  0
  4 45  1  0
  4 46  1  0
  4 47  1  0
  5  6  1  0
  5 48  1  0
  5 49  1  0
  6  7  1  0
  6 50  1  0
  6 51  1  0
  7  8  1  6
  7  9  1  0
  7 15  1  0
  8 52  1  0
  8 53  1  0
  8 54  1  0
  9 14  1  0
  9 10  1  0
  9 55  1  1
 10 11  1  0
 10 56  1  0
 10 57  1  0
 11 12  1  0
 11 58  1  0
 11 59  1  0
 12 13  2  0
 12 14  1  0
 15 16  1  1
 15 17  1  0
 16 60  1  0
 16 61  1  0
 16 62  1  0
 17 18  1  0
 17 63  1  0
 17 64  1  0
 18 19  1  0
 18 65  1  0
 18 66  1  0
 19 34  1  0
 19 20  1  6
 19 21  1  0
 20 67  1  0
 20 68  1  0
 20 69  1  0
 21 22  1  0
 21 70  1  6
 22 23  1  0
 22 24  1  0
 22 71  1  1
 23 72  1  0
 24 25  1  0
 24 26  1  0
 24 73  1  1
 25 74  1  0
 26 34  1  0
 26 27  1  1
 26 28  1  0
 27 75  1  0
 27 76  1  0
 27 77  1  0
 28 39  1  0
 28 29  1  0
 28 78  1  1
 29 30  1  0
 29 79  1  0
 29 80  1  0
 30 39  1  0
 30 31  1  0
 30 81  1  1
 31 32  1  0
 31 35  1  0
 31 82  1  1
 32 33  1  0
 32 83  1  0
 32 84  1  0
 33 34  1  0
 33 85  1  0
 33 86  1  0
 34 87  1  1
 35 36  2  0
 35 37  1  0
 37 38  1  0
 37 88  1  0
 37 89  1  0
 38 39  1  0
 38 90  1  0
 38 91  1  0
 39 40  1  1
 40 92  1  0
 40 93  1  0
 40 94  1  0
M  END
>  <i_m_ct_stereo_status>  (184) 
1

>  <s_m_source_file>  (184) 
/var/tmp/pbs.5076255.sched01/tmpl83nofxy/76c90atywu.sdf

>  <i_m_source_file_index>  (184) 
13

>  <i_lp_mmshare_version>  (184) 
48012

>  <i_f3d_flags>  (184) 
0

>  <s_epik_input>  (184) 
Tz1DKE8xKVtDSDJdW0NIMl1bQ0BIXTFbQ0BdKFtDSDNdKShbQ0gyXVtDSDJdMilbQ0BdKFtDSDNdKShbQ0BASF0zW0NIM10pW0NIMl1bQ0gyXVtDQF0oW0NIM10pKFtDQEBIXTRDMjNbQ0gzXSlbQ0BIXTVbQ0BAXShbQ0gzXSkoW0NASF0oW09IXSlbQ0BASF00W09IXSlbQ0BIXTZbQ0BdNyhbQ0gzXSlbQ0BIXShbQ0gyXTYpW0NASF0oW0NIMl1bQ0gyXTUpQyg9TylbQ0gyXVtDSDJdNw==

>  <s_epik_cmdline>  (184) 
J2VwaWtfcHl0aG9uJywgJy1waHQnLCAnMi4wJywgJy1waCcsICc3LjAnLCAnLXRuJywgJzgnLCAnLW1hJywgJzIwMCcsICctaW1hZScsICc8aW5maWxlLm1hZT4nLCAnLW9tYWUnLCAnPG91dGZpbGUubWFlPic=

>  <r_lp_tautomer_probability>  (184) 
1

>  <r_epik_Ionization_Penalty>  (184) 
1.73294e-06

>  <r_epik_Ionization_Penalty_Charging>  (184) 
0

>  <r_epik_Ionization_Penalty_Neutral>  (184) 
1.73294e-06

>  <r_epik_State_Penalty>  (184) 
-0

>  <r_epik_Charging_Adjusted_Penalty>  (184) 
0

>  <i_epik_Tot_Q>  (184) 
0

>  <i_epik_Tot_abs_Q>  (184) 
0

>  <s_epik_Chemistry_Notes>  (184) 
This compound has an ester and may undergo hydrolysis at high or low pH.

>  <s_lp_Force_Field>  (184) 
OPLS3e

>  <r_lp_Energy>  (184) 
191.747

>  <b_lp_Chiralities_Consistent>  (184) 
1

>  <s_lp_Variant>  (184) 
63:0-2

>  <s_i_glide_gridfile>  (184) 
pfpi4k_grid

>  <i_i_glide_lignum>  (184) 
13

>  <i_i_glide_rotatable_bonds>  (184) 
3

>  <r_i_docking_score>  (184) 
-1.87403

>  <r_i_glide_ligand_efficiency>  (184) 
-0.0468507

>  <r_i_glide_ligand_efficiency_sa>  (184) 
-0.160227

>  <r_i_glide_ligand_efficiency_ln>  (184) 
-0.399675

>  <r_i_glide_gscore>  (184) 
-1.87403

>  <r_i_glide_lipo>  (184) 
-0.109082

>  <r_i_glide_hbond>  (184) 
-0.0702609

>  <r_i_glide_metal>  (184) 
-0

>  <r_i_glide_rewards>  (184) 
0

>  <r_i_glide_evdw>  (184) 
-19.3462

>  <r_i_glide_ecoul>  (184) 
-4.898

>  <r_i_glide_erotb>  (184) 
0.0674405

>  <r_i_glide_esite>  (184) 
-0.0601186

>  <r_i_glide_emodel>  (184) 
-22.7778

>  <r_i_glide_energy>  (184) 
-24.2442

>  <r_i_glide_einternal>  (184) 
4.70838

>  <r_i_glide_intrahb_reward>  (184) 
-0

>  <i_i_glide_confnum>  (184) 
2

>  <i_i_glide_posenum>  (184) 
13

>  <r_i_glide_eff_state_penalty>  (184) 
0

>  <ligand_id>  (184) 
63

>  <original_smiles>  (184) 
CC1C2(C)CCC(C)(C3CCC(=O)O3)C1(C)CCC1(C)C2C(O)C(O)C2(C)C3CC4C(CCC12)C(=O)CCC43C

>  <smiles>  (184) 
[H]OC1([H])C([H])(O[H])C2(C([H])([H])[H])C3([H])C([H])([H])C4([H])C([H])(C(=O)C([H])([H])C([H])([H])C43C([H])([H])[H])C([H])([H])C([H])([H])C2([H])C2(C([H])([H])[H])C([H])([H])C([H])([H])C3(C([H])([H])[H])C([H])(C([H])([H])[H])C(C([H])([H])[H])(C([H])([H])C([H])([H])C3(C([H])([H])[H])C3([H])OC(=O)C([H])([H])C3([H])[H])C12[H]

$$$$
64:0:0
     RDKit          3D

 47 49  0  0  1  0  0  0  0  0999 V2000
    6.2572    0.5408    4.8427 C   0  0  0  0  0  0  0  0  0  0  0  0
    4.9678    1.0953    5.0009 O   0  0  0  0  0  0  0  0  0  0  0  0
    3.8828    0.3785    4.6685 C   0  0  0  0  0  0  0  0  0  0  0  0
    3.8915   -0.7426    4.1619 O   0  0  0  0  0  0  0  0  0  0  0  0
    2.5648    1.1094    4.9830 C   0  0  2  0  0  0  0  0  0  0  0  0
    2.3196    2.2307    3.9419 C   0  0  1  0  0  0  0  0  0  0  0  0
    2.1322    1.7044    2.5010 C   0  0  0  0  0  0  0  0  0  0  0  0
    1.1143    3.0458    4.3190 C   0  0  0  0  0  0  0  0  0  0  0  0
    0.6434    3.1578    5.5641 C   0  0  0  0  0  0  0  0  0  0  0  0
   -0.5175    3.8684    5.7290 O   0  0  0  0  0  0  0  0  0  0  0  0
   -1.2871    3.6473    6.8360 C   0  0  0  0  0  0  0  0  0  0  0  0
   -2.5857    3.1376    6.6811 C   0  0  0  0  0  0  0  0  0  0  0  0
   -3.3856    2.9370    7.8135 C   0  0  0  0  0  0  0  0  0  0  0  0
   -2.9057    3.2709    9.0973 C   0  0  0  0  0  0  0  0  0  0  0  0
   -1.6043    3.7928    9.2502 C   0  0  0  0  0  0  0  0  0  0  0  0
   -0.7897    3.9592    8.1123 C   0  0  0  0  0  0  0  0  0  0  0  0
    0.4640    4.4854    8.2259 O   0  0  0  0  0  0  0  0  0  0  0  0
    1.5784    3.6370    7.9158 C   0  0  0  0  0  0  0  0  0  0  0  0
    2.6623    4.6380    7.4594 C   0  0  0  0  0  0  0  0  0  0  0  0
    1.9637    3.0614    9.2928 C   0  0  0  0  0  0  0  0  0  0  0  0
    1.2878    2.5331    6.8165 C   0  0  2  0  0  0  0  0  0  0  0  0
    2.5088    1.6020    6.4706 C   0  0  1  0  0  0  0  0  0  0  0  0
    2.5915    0.3771    7.4198 C   0  0  0  0  0  0  0  0  0  0  0  0
    7.0058    1.2693    5.1524 H   0  0  0  0  0  0  0  0  0  0  0  0
    6.4483    0.2740    3.8024 H   0  0  0  0  0  0  0  0  0  0  0  0
    6.3736   -0.3478    5.4643 H   0  0  0  0  0  0  0  0  0  0  0  0
    1.7691    0.3733    4.8582 H   0  0  0  0  0  0  0  0  0  0  0  0
    3.1604    2.9259    3.9442 H   0  0  0  0  0  0  0  0  0  0  0  0
    1.9244    2.5266    1.8140 H   0  0  0  0  0  0  0  0  0  0  0  0
    1.2915    1.0083    2.4289 H   0  0  0  0  0  0  0  0  0  0  0  0
    3.0208    1.1989    2.1247 H   0  0  0  0  0  0  0  0  0  0  0  0
    0.5941    3.5283    3.5005 H   0  0  0  0  0  0  0  0  0  0  0  0
   -2.9550    2.9107    5.6935 H   0  0  0  0  0  0  0  0  0  0  0  0
   -4.3853    2.5514    7.6917 H   0  0  0  0  0  0  0  0  0  0  0  0
   -3.5383    3.1234    9.9636 H   0  0  0  0  0  0  0  0  0  0  0  0
   -1.2315    4.0563   10.2319 H   0  0  0  0  0  0  0  0  0  0  0  0
    3.6486    4.1794    7.3756 H   0  0  0  0  0  0  0  0  0  0  0  0
    2.7576    5.4543    8.1769 H   0  0  0  0  0  0  0  0  0  0  0  0
    2.4158    5.0776    6.4916 H   0  0  0  0  0  0  0  0  0  0  0  0
    2.9583    2.6157    9.2903 H   0  0  0  0  0  0  0  0  0  0  0  0
    1.2414    2.3197    9.6341 H   0  0  0  0  0  0  0  0  0  0  0  0
    1.9852    3.8523   10.0467 H   0  0  0  0  0  0  0  0  0  0  0  0
    0.5359    1.8512    7.2144 H   0  0  0  0  0  0  0  0  0  0  0  0
    3.4083    2.1888    6.6404 H   0  0  0  0  0  0  0  0  0  0  0  0
    1.7897   -0.3348    7.2262 H   0  0  0  0  0  0  0  0  0  0  0  0
    2.5305    0.6435    8.4703 H   0  0  0  0  0  0  0  0  0  0  0  0
    3.5360   -0.1590    7.3087 H   0  0  0  0  0  0  0  0  0  0  0  0
  1  2  1  0
  1 24  1  0
  1 25  1  0
  1 26  1  0
  2  3  1  0
  3  4  2  0
  3  5  1  0
  5 22  1  0
  5  6  1  0
  5 27  1  1
  6  7  1  0
  6  8  1  0
  6 28  1  6
  7 29  1  0
  7 30  1  0
  7 31  1  0
  8  9  2  0
  8 32  1  0
  9 21  1  0
  9 10  1  0
 10 11  1  0
 11 16  2  0
 11 12  1  0
 12 13  2  0
 12 33  1  0
 13 14  1  0
 13 34  1  0
 14 15  2  0
 14 35  1  0
 15 16  1  0
 15 36  1  0
 16 17  1  0
 17 18  1  0
 18 19  1  0
 18 20  1  0
 18 21  1  0
 19 37  1  0
 19 38  1  0
 19 39  1  0
 20 40  1  0
 20 41  1  0
 20 42  1  0
 21 22  1  0
 21 43  1  1
 22 23  1  0
 22 44  1  1
 23 45  1  0
 23 46  1  0
 23 47  1  0
M  END
>  <i_m_ct_stereo_status>  (185) 
1

>  <s_m_source_file>  (185) 
/var/tmp/pbs.5076255.sched01/tmpl83nofxy/76c90atywu.sdf

>  <i_m_source_file_index>  (185) 
14

>  <i_lp_mmshare_version>  (185) 
48012

>  <i_f3d_flags>  (185) 
0

>  <s_epik_input>  (185) 
W0NIM11PQyg9TylbQ0BIXShbQ0BASF0oW0NIM10pW0NIXT0xKVtDQEhdKFtDSDNdKVtDQEhdKEMxMilDKFtDSDNdKShbQ0gzXSlPYzNjKE8yKVtjSF1bY0hdW2NIXVtjSF0z

>  <s_epik_cmdline>  (185) 
J2VwaWtfcHl0aG9uJywgJy1waHQnLCAnMi4wJywgJy1waCcsICc3LjAnLCAnLXRuJywgJzgnLCAnLW1hJywgJzIwMCcsICctaW1hZScsICc8aW5maWxlLm1hZT4nLCAnLW9tYWUnLCAnPG91dGZpbGUubWFlPic=

>  <r_lp_tautomer_probability>  (185) 
1

>  <r_epik_Ionization_Penalty>  (185) 
0

>  <r_epik_Ionization_Penalty_Charging>  (185) 
0

>  <r_epik_Ionization_Penalty_Neutral>  (185) 
0

>  <r_epik_State_Penalty>  (185) 
-0

>  <r_epik_Charging_Adjusted_Penalty>  (185) 
0

>  <i_epik_Tot_Q>  (185) 
0

>  <i_epik_Tot_abs_Q>  (185) 
0

>  <s_epik_Chemistry_Notes>  (185) 
This compound has an ester and may undergo hydrolysis at high or low pH.

>  <s_lp_Force_Field>  (185) 
OPLS3e

>  <r_lp_Energy>  (185) 
37.333

>  <b_lp_Chiralities_Consistent>  (185) 
1

>  <s_lp_Variant>  (185) 
64:0-1

>  <s_i_glide_gridfile>  (185) 
pfpi4k_grid

>  <i_i_glide_lignum>  (185) 
14

>  <i_i_glide_rotatable_bonds>  (185) 
2

>  <r_i_docking_score>  (185) 
-2.49703

>  <r_i_glide_ligand_efficiency>  (185) 
-0.108566

>  <r_i_glide_ligand_efficiency_sa>  (185) 
-0.308749

>  <r_i_glide_ligand_efficiency_ln>  (185) 
-0.603804

>  <r_i_glide_gscore>  (185) 
-2.49703

>  <r_i_glide_lipo>  (185) 
-0.489025

>  <r_i_glide_hbond>  (185) 
0

>  <r_i_glide_metal>  (185) 
-0

>  <r_i_glide_rewards>  (185) 
-1.25681

>  <r_i_glide_evdw>  (185) 
-17.4006

>  <r_i_glide_ecoul>  (185) 
-0.447587

>  <r_i_glide_erotb>  (185) 
0.185969

>  <r_i_glide_esite>  (185) 
0

>  <r_i_glide_emodel>  (185) 
-21.0113

>  <r_i_glide_energy>  (185) 
-17.8481

>  <r_i_glide_einternal>  (185) 
0.320441

>  <r_i_glide_intrahb_reward>  (185) 
-0

>  <i_i_glide_confnum>  (185) 
3

>  <i_i_glide_posenum>  (185) 
35

>  <r_i_glide_eff_state_penalty>  (185) 
0

>  <ligand_id>  (185) 
64

>  <original_smiles>  (185) 
COC(=O)C1C(C)C=C2Oc3ccccc3OC(C)(C)C2C1C

>  <smiles>  (185) 
[H]C1=C2Oc3c([H])c([H])c([H])c([H])c3OC(C([H])([H])[H])(C([H])([H])[H])C2([H])C([H])(C([H])([H])[H])C([H])(C(=O)OC([H])([H])[H])C1([H])C([H])([H])[H]

$$$$
64:0:1
     RDKit          3D

 47 49  0  0  1  0  0  0  0  0999 V2000
    3.3589   -1.1065    2.1108 C   0  0  0  0  0  0  0  0  0  0  0  0
    2.5110   -0.3615    2.9632 O   0  0  0  0  0  0  0  0  0  0  0  0
    1.3756   -0.9060    3.4329 C   0  0  0  0  0  0  0  0  0  0  0  0
    1.0166   -2.0735    3.2748 O   0  0  0  0  0  0  0  0  0  0  0  0
    0.5177    0.0901    4.2345 C   0  0  2  0  0  0  0  0  0  0  0  0
    0.3223    1.3961    3.4199 C   0  0  1  0  0  0  0  0  0  0  0  0
   -0.4339    1.1863    2.0939 C   0  0  0  0  0  0  0  0  0  0  0  0
   -0.3991    2.4280    4.2367 C   0  0  0  0  0  0  0  0  0  0  0  0
   -0.4085    2.4509    5.5735 C   0  0  0  0  0  0  0  0  0  0  0  0
   -1.1803    3.4160    6.1636 O   0  0  0  0  0  0  0  0  0  0  0  0
   -1.6097    3.2312    7.4473 C   0  0  0  0  0  0  0  0  0  0  0  0
   -2.9870    3.1260    7.7025 C   0  0  0  0  0  0  0  0  0  0  0  0
   -3.4421    2.9877    9.0249 C   0  0  0  0  0  0  0  0  0  0  0  0
   -2.5164    2.9482   10.0854 C   0  0  0  0  0  0  0  0  0  0  0  0
   -1.1348    3.0532    9.8263 C   0  0  0  0  0  0  0  0  0  0  0  0
   -0.6824    3.1809    8.5004 C   0  0  0  0  0  0  0  0  0  0  0  0
    0.6484    3.3158    8.2207 O   0  0  0  0  0  0  0  0  0  0  0  0
    1.2955    2.2606    7.4948 C   0  0  0  0  0  0  0  0  0  0  0  0
    2.4477    2.9903    6.7723 C   0  0  0  0  0  0  0  0  0  0  0  0
    1.8748    1.3811    8.6214 C   0  0  0  0  0  0  0  0  0  0  0  0
    0.3629    1.4749    6.4831 C   0  0  2  0  0  0  0  0  0  0  0  0
    1.0767    0.3213    5.6784 C   0  0  1  0  0  0  0  0  0  0  0  0
    1.0478   -1.0193    6.4617 C   0  0  0  0  0  0  0  0  0  0  0  0
    4.1999   -0.4826    1.8091 H   0  0  0  0  0  0  0  0  0  0  0  0
    2.8308   -1.4214    1.2096 H   0  0  0  0  0  0  0  0  0  0  0  0
    3.7495   -1.9858    2.6233 H   0  0  0  0  0  0  0  0  0  0  0  0
   -0.4663   -0.3695    4.3376 H   0  0  0  0  0  0  0  0  0  0  0  0
    1.2867    1.8498    3.1902 H   0  0  0  0  0  0  0  0  0  0  0  0
   -0.5596    2.1388    1.5790 H   0  0  0  0  0  0  0  0  0  0  0  0
   -1.4300    0.7692    2.2548 H   0  0  0  0  0  0  0  0  0  0  0  0
    0.1035    0.5319    1.4063 H   0  0  0  0  0  0  0  0  0  0  0  0
   -0.9558    3.1720    3.6833 H   0  0  0  0  0  0  0  0  0  0  0  0
   -3.6779    3.1544    6.8782 H   0  0  0  0  0  0  0  0  0  0  0  0
   -4.5015    2.9145    9.2238 H   0  0  0  0  0  0  0  0  0  0  0  0
   -2.8681    2.8382   11.1022 H   0  0  0  0  0  0  0  0  0  0  0  0
   -0.4260    3.0339   10.6414 H   0  0  0  0  0  0  0  0  0  0  0  0
    3.1690    2.3030    6.3308 H   0  0  0  0  0  0  0  0  0  0  0  0
    3.0024    3.6198    7.4698 H   0  0  0  0  0  0  0  0  0  0  0  0
    2.0735    3.6375    5.9790 H   0  0  0  0  0  0  0  0  0  0  0  0
    2.6314    0.6881    8.2538 H   0  0  0  0  0  0  0  0  0  0  0  0
    1.0950    0.8147    9.1326 H   0  0  0  0  0  0  0  0  0  0  0  0
    2.3646    1.9992    9.3770 H   0  0  0  0  0  0  0  0  0  0  0  0
   -0.4053    0.9677    7.0639 H   0  0  0  0  0  0  0  0  0  0  0  0
    2.1233    0.5899    5.5537 H   0  0  0  0  0  0  0  0  0  0  0  0
    0.0421   -1.4402    6.4970 H   0  0  0  0  0  0  0  0  0  0  0  0
    1.3877   -0.9270    7.4888 H   0  0  0  0  0  0  0  0  0  0  0  0
    1.6952   -1.7698    6.0064 H   0  0  0  0  0  0  0  0  0  0  0  0
  1  2  1  0
  1 24  1  0
  1 25  1  0
  1 26  1  0
  2  3  1  0
  3  4  2  0
  3  5  1  0
  5 22  1  0
  5  6  1  0
  5 27  1  1
  6  7  1  0
  6  8  1  0
  6 28  1  6
  7 29  1  0
  7 30  1  0
  7 31  1  0
  8  9  2  0
  8 32  1  0
  9 21  1  0
  9 10  1  0
 10 11  1  0
 11 16  2  0
 11 12  1  0
 12 13  2  0
 12 33  1  0
 13 14  1  0
 13 34  1  0
 14 15  2  0
 14 35  1  0
 15 16  1  0
 15 36  1  0
 16 17  1  0
 17 18  1  0
 18 19  1  0
 18 20  1  0
 18 21  1  0
 19 37  1  0
 19 38  1  0
 19 39  1  0
 20 40  1  0
 20 41  1  0
 20 42  1  0
 21 22  1  0
 21 43  1  1
 22 23  1  0
 22 44  1  6
 23 45  1  0
 23 46  1  0
 23 47  1  0
M  END
>  <i_m_ct_stereo_status>  (186) 
1

>  <s_m_source_file>  (186) 
/var/tmp/pbs.5076255.sched01/tmpl83nofxy/76c90atywu.sdf

>  <i_m_source_file_index>  (186) 
14

>  <i_lp_mmshare_version>  (186) 
48012

>  <i_f3d_flags>  (186) 
0

>  <s_epik_input>  (186) 
W0NIM11PQyg9TylbQ0BIXShbQ0BASF0oW0NIM10pW0NIXT0xKVtDQEhdKFtDSDNdKVtDQEhdKEMxMilDKFtDSDNdKShbQ0gzXSlPYzNjKE8yKVtjSF1bY0hdW2NIXVtjSF0z

>  <s_epik_cmdline>  (186) 
J2VwaWtfcHl0aG9uJywgJy1waHQnLCAnMi4wJywgJy1waCcsICc3LjAnLCAnLXRuJywgJzgnLCAnLW1hJywgJzIwMCcsICctaW1hZScsICc8aW5maWxlLm1hZT4nLCAnLW9tYWUnLCAnPG91dGZpbGUubWFlPic=

>  <r_lp_tautomer_probability>  (186) 
1

>  <r_epik_Ionization_Penalty>  (186) 
0

>  <r_epik_Ionization_Penalty_Charging>  (186) 
0

>  <r_epik_Ionization_Penalty_Neutral>  (186) 
0

>  <r_epik_State_Penalty>  (186) 
-0

>  <r_epik_Charging_Adjusted_Penalty>  (186) 
0

>  <i_epik_Tot_Q>  (186) 
0

>  <i_epik_Tot_abs_Q>  (186) 
0

>  <s_epik_Chemistry_Notes>  (186) 
This compound has an ester and may undergo hydrolysis at high or low pH.

>  <s_lp_Force_Field>  (186) 
OPLS3e

>  <r_lp_Energy>  (186) 
37.333

>  <b_lp_Chiralities_Consistent>  (186) 
1

>  <s_lp_Variant>  (186) 
64:0-1

>  <s_i_glide_gridfile>  (186) 
pfpi4k_grid

>  <i_i_glide_lignum>  (186) 
14

>  <i_i_glide_rotatable_bonds>  (186) 
2

>  <r_i_docking_score>  (186) 
-2.19758

>  <r_i_glide_ligand_efficiency>  (186) 
-0.095547

>  <r_i_glide_ligand_efficiency_sa>  (186) 
-0.271723

>  <r_i_glide_ligand_efficiency_ln>  (186) 
-0.531395

>  <r_i_glide_gscore>  (186) 
-2.19758

>  <r_i_glide_lipo>  (186) 
-0.171288

>  <r_i_glide_hbond>  (186) 
0

>  <r_i_glide_metal>  (186) 
-0

>  <r_i_glide_rewards>  (186) 
-1.25188

>  <r_i_glide_evdw>  (186) 
-19.9918

>  <r_i_glide_ecoul>  (186) 
0.309162

>  <r_i_glide_erotb>  (186) 
0.185969

>  <r_i_glide_esite>  (186) 
-0.00716814

>  <r_i_glide_emodel>  (186) 
-22.3504

>  <r_i_glide_energy>  (186) 
-19.6827

>  <r_i_glide_einternal>  (186) 
0.522554

>  <r_i_glide_intrahb_reward>  (186) 
-0

>  <i_i_glide_confnum>  (186) 
1

>  <i_i_glide_posenum>  (186) 
31

>  <r_i_glide_eff_state_penalty>  (186) 
0

>  <ligand_id>  (186) 
64

>  <original_smiles>  (186) 
COC(=O)C1C(C)C=C2Oc3ccccc3OC(C)(C)C2C1C

>  <smiles>  (186) 
[H]C1=C2Oc3c([H])c([H])c([H])c([H])c3OC(C([H])([H])[H])(C([H])([H])[H])C2([H])C([H])(C([H])([H])[H])C([H])(C(=O)OC([H])([H])[H])C1([H])C([H])([H])[H]

$$$$
64:0:2
     RDKit          3D

 47 49  0  0  1  0  0  0  0  0999 V2000
    2.8274    0.4480    1.6914 C   0  0  0  0  0  0  0  0  0  0  0  0
    2.0461    1.0320    2.7148 O   0  0  0  0  0  0  0  0  0  0  0  0
    1.1096    0.3034    3.3414 C   0  0  0  0  0  0  0  0  0  0  0  0
    0.8900   -0.8958    3.1609 O   0  0  0  0  0  0  0  0  0  0  0  0
    0.2918    1.1206    4.3570 C   0  0  2  0  0  0  0  0  0  0  0  0
   -0.3536    2.3390    3.6502 C   0  0  1  0  0  0  0  0  0  0  0  0
   -1.3562    1.9415    2.5511 C   0  0  0  0  0  0  0  0  0  0  0  0
   -1.0483    3.2212    4.6469 C   0  0  0  0  0  0  0  0  0  0  0  0
   -0.7366    3.2747    5.9458 C   0  0  0  0  0  0  0  0  0  0  0  0
   -1.5234    4.0716    6.7352 O   0  0  0  0  0  0  0  0  0  0  0  0
   -1.5837    3.8348    8.0786 C   0  0  0  0  0  0  0  0  0  0  0  0
   -2.8074    3.4672    8.6687 C   0  0  0  0  0  0  0  0  0  0  0  0
   -2.8763    3.2554   10.0551 C   0  0  0  0  0  0  0  0  0  0  0  0
   -1.7264    3.4410   10.8515 C   0  0  0  0  0  0  0  0  0  0  0  0
   -0.5054    3.8205   10.2612 C   0  0  0  0  0  0  0  0  0  0  0  0
   -0.4323    3.9992    8.8679 C   0  0  0  0  0  0  0  0  0  0  0  0
    0.7326    4.3983    8.2731 O   0  0  0  0  0  0  0  0  0  0  0  0
    1.3867    3.4819    7.3844 C   0  0  0  0  0  0  0  0  0  0  0  0
    2.1538    4.4136    6.4204 C   0  0  0  0  0  0  0  0  0  0  0  0
    2.3944    2.7667    8.3070 C   0  0  0  0  0  0  0  0  0  0  0  0
    0.4160    2.4989    6.6110 C   0  0  2  0  0  0  0  0  0  0  0  0
    1.1303    1.4967    5.6251 C   0  0  1  0  0  0  0  0  0  0  0  0
    1.5659    0.1973    6.3527 C   0  0  0  0  0  0  0  0  0  0  0  0
    3.5021    1.2006    1.2847 H   0  0  0  0  0  0  0  0  0  0  0  0
    2.1984    0.0833    0.8794 H   0  0  0  0  0  0  0  0  0  0  0  0
    3.4260   -0.3765    2.0777 H   0  0  0  0  0  0  0  0  0  0  0  0
   -0.5223    0.4717    4.6855 H   0  0  0  0  0  0  0  0  0  0  0  0
    0.4139    2.9680    3.1946 H   0  0  0  0  0  0  0  0  0  0  0  0
   -1.8012    2.8309    2.1053 H   0  0  0  0  0  0  0  0  0  0  0  0
   -2.1721    1.3453    2.9555 H   0  0  0  0  0  0  0  0  0  0  0  0
   -0.8875    1.3870    1.7365 H   0  0  0  0  0  0  0  0  0  0  0  0
   -1.8703    3.8144    4.2665 H   0  0  0  0  0  0  0  0  0  0  0  0
   -3.6831    3.3440    8.0504 H   0  0  0  0  0  0  0  0  0  0  0  0
   -3.8071    2.9562   10.5173 H   0  0  0  0  0  0  0  0  0  0  0  0
   -1.7875    3.2877   11.9182 H   0  0  0  0  0  0  0  0  0  0  0  0
    0.3728    3.9674   10.8706 H   0  0  0  0  0  0  0  0  0  0  0  0
    2.8690    3.8781    5.7953 H   0  0  0  0  0  0  0  0  0  0  0  0
    2.7243    5.1598    6.9771 H   0  0  0  0  0  0  0  0  0  0  0  0
    1.4734    4.9523    5.7610 H   0  0  0  0  0  0  0  0  0  0  0  0
    3.1624    2.2318    7.7454 H   0  0  0  0  0  0  0  0  0  0  0  0
    1.8951    2.0655    8.9783 H   0  0  0  0  0  0  0  0  0  0  0  0
    2.9194    3.4901    8.9356 H   0  0  0  0  0  0  0  0  0  0  0  0
   -0.0675    1.8601    7.3483 H   0  0  0  0  0  0  0  0  0  0  0  0
    2.0371    1.9706    5.2547 H   0  0  0  0  0  0  0  0  0  0  0  0
    0.7061   -0.4178    6.6246 H   0  0  0  0  0  0  0  0  0  0  0  0
    2.1220    0.3820    7.2676 H   0  0  0  0  0  0  0  0  0  0  0  0
    2.2191   -0.4168    5.7297 H   0  0  0  0  0  0  0  0  0  0  0  0
  1  2  1  0
  1 24  1  0
  1 25  1  0
  1 26  1  0
  2  3  1  0
  3  4  2  0
  3  5  1  0
  5 22  1  0
  5  6  1  0
  5 27  1  1
  6  7  1  0
  6  8  1  0
  6 28  1  6
  7 29  1  0
  7 30  1  0
  7 31  1  0
  8  9  2  0
  8 32  1  0
  9 21  1  0
  9 10  1  0
 10 11  1  0
 11 16  2  0
 11 12  1  0
 12 13  2  0
 12 33  1  0
 13 14  1  0
 13 34  1  0
 14 15  2  0
 14 35  1  0
 15 16  1  0
 15 36  1  0
 16 17  1  0
 17 18  1  0
 18 19  1  0
 18 20  1  0
 18 21  1  0
 19 37  1  0
 19 38  1  0
 19 39  1  0
 20 40  1  0
 20 41  1  0
 20 42  1  0
 21 22  1  0
 21 43  1  1
 22 23  1  0
 22 44  1  6
 23 45  1  0
 23 46  1  0
 23 47  1  0
M  END
>  <i_m_ct_stereo_status>  (187) 
1

>  <s_m_source_file>  (187) 
/var/tmp/pbs.5076255.sched01/tmpl83nofxy/76c90atywu.sdf

>  <i_m_source_file_index>  (187) 
14

>  <i_lp_mmshare_version>  (187) 
48012

>  <i_f3d_flags>  (187) 
0

>  <s_epik_input>  (187) 
W0NIM11PQyg9TylbQ0BIXShbQ0BASF0oW0NIM10pW0NIXT0xKVtDQEhdKFtDSDNdKVtDQEhdKEMxMilDKFtDSDNdKShbQ0gzXSlPYzNjKE8yKVtjSF1bY0hdW2NIXVtjSF0z

>  <s_epik_cmdline>  (187) 
J2VwaWtfcHl0aG9uJywgJy1waHQnLCAnMi4wJywgJy1waCcsICc3LjAnLCAnLXRuJywgJzgnLCAnLW1hJywgJzIwMCcsICctaW1hZScsICc8aW5maWxlLm1hZT4nLCAnLW9tYWUnLCAnPG91dGZpbGUubWFlPic=

>  <r_lp_tautomer_probability>  (187) 
1

>  <r_epik_Ionization_Penalty>  (187) 
0

>  <r_epik_Ionization_Penalty_Charging>  (187) 
0

>  <r_epik_Ionization_Penalty_Neutral>  (187) 
0

>  <r_epik_State_Penalty>  (187) 
-0

>  <r_epik_Charging_Adjusted_Penalty>  (187) 
0

>  <i_epik_Tot_Q>  (187) 
0

>  <i_epik_Tot_abs_Q>  (187) 
0

>  <s_epik_Chemistry_Notes>  (187) 
This compound has an ester and may undergo hydrolysis at high or low pH.

>  <s_lp_Force_Field>  (187) 
OPLS3e

>  <r_lp_Energy>  (187) 
37.333

>  <b_lp_Chiralities_Consistent>  (187) 
1

>  <s_lp_Variant>  (187) 
64:0-1

>  <s_i_glide_gridfile>  (187) 
pfpi4k_grid

>  <i_i_glide_lignum>  (187) 
14

>  <i_i_glide_rotatable_bonds>  (187) 
2

>  <r_i_docking_score>  (187) 
-2.14839

>  <r_i_glide_ligand_efficiency>  (187) 
-0.0934081

>  <r_i_glide_ligand_efficiency_sa>  (187) 
-0.26564

>  <r_i_glide_ligand_efficiency_ln>  (187) 
-0.519499

>  <r_i_glide_gscore>  (187) 
-2.14839

>  <r_i_glide_lipo>  (187) 
-0.0903053

>  <r_i_glide_hbond>  (187) 
0

>  <r_i_glide_metal>  (187) 
-0

>  <r_i_glide_rewards>  (187) 
-1.25188

>  <r_i_glide_evdw>  (187) 
-19.4333

>  <r_i_glide_ecoul>  (187) 
-0.046301

>  <r_i_glide_erotb>  (187) 
0.185969

>  <r_i_glide_esite>  (187) 
-0.0135642

>  <r_i_glide_emodel>  (187) 
-22.2859

>  <r_i_glide_energy>  (187) 
-19.4796

>  <r_i_glide_einternal>  (187) 
0.200671

>  <r_i_glide_intrahb_reward>  (187) 
-0

>  <i_i_glide_confnum>  (187) 
1

>  <i_i_glide_posenum>  (187) 
27

>  <r_i_glide_eff_state_penalty>  (187) 
0

>  <ligand_id>  (187) 
64

>  <original_smiles>  (187) 
COC(=O)C1C(C)C=C2Oc3ccccc3OC(C)(C)C2C1C

>  <smiles>  (187) 
[H]C1=C2Oc3c([H])c([H])c([H])c([H])c3OC(C([H])([H])[H])(C([H])([H])[H])C2([H])C([H])(C([H])([H])[H])C([H])(C(=O)OC([H])([H])[H])C1([H])C([H])([H])[H]

$$$$
65:0:0
     RDKit          3D

 71 75  0  0  1  0  0  0  0  0999 V2000
   -2.4182    3.2915    6.0658 C   0  0  0  0  0  0  0  0  0  0  0  0
   -1.3392    3.8212    5.4373 C   0  0  0  0  0  0  0  0  0  0  0  0
   -0.3482    4.7789    6.1807 C   0  0  1  0  0  0  0  0  0  0  0  0
   -0.3410    4.7576    7.7753 C   0  0  2  0  0  0  0  0  0  0  0  0
   -0.1461    6.1867    8.4001 C   0  0  0  0  0  0  0  0  0  0  0  0
    1.1396    6.4284    9.2387 C   0  0  0  0  0  0  0  0  0  0  0  0
    2.2623    5.4829    8.8739 C   0  0  0  0  0  0  0  0  0  0  0  0
    2.0408    4.2335    8.4102 C   0  0  0  0  0  0  0  0  0  0  0  0
    0.5979    3.7232    8.4657 C   0  0  1  0  0  0  0  0  0  0  0  0
    0.1874    3.7185    9.8236 O   0  0  0  0  0  0  0  0  0  0  0  0
    0.3267    2.2458    8.1000 C   0  0  0  0  0  0  0  0  0  0  0  0
    1.5030    1.4524    7.5131 C   0  0  0  0  0  0  0  0  0  0  0  0
    2.5613    2.3071    6.7504 C   0  0  2  0  0  0  0  0  0  0  0  0
    3.5400    1.2864    6.6462 O   0  0  0  0  0  0  0  0  0  0  0  0
    3.1546    3.3283    7.8386 C   0  0  2  0  0  0  0  0  0  0  0  0
    3.6896    2.6130    9.1270 C   0  0  0  0  0  0  0  0  0  0  0  0
    4.3968    4.1392    7.3240 C   0  0  1  0  0  0  0  0  0  0  0  0
    5.3972    3.3196    6.7403 O   0  0  0  0  0  0  0  0  0  0  0  0
    4.1453    5.3290    6.3978 C   0  0  0  0  0  0  0  0  0  0  0  0
    3.5623    5.0062    5.0340 C   0  0  0  0  0  0  0  0  0  0  0  0
    2.1553    4.3329    4.8295 C   0  0  2  0  0  0  0  0  0  0  0  0
    2.1331    4.5861    3.2668 C   0  0  0  0  0  0  0  0  0  0  0  0
    1.0420    5.2330    5.5514 C   0  0  1  0  0  0  0  0  0  0  0  0
    0.8492    6.4667    4.8773 O   0  0  0  0  0  0  0  0  0  0  0  0
    2.1689    2.7530    5.1983 C   0  0  1  0  0  0  0  0  0  0  0  0
    3.1835    2.0682    4.2022 C   0  0  0  0  0  0  0  0  0  0  0  0
    0.8312    2.0006    4.7831 C   0  0  0  0  0  0  0  0  0  0  0  0
   -0.1459    2.4044    3.6481 C   0  0  0  0  0  0  0  0  0  0  0  0
   -1.1691    3.5558    3.9248 C   0  0  1  0  0  0  0  0  0  0  0  0
   -2.4840    3.2050    3.1776 C   0  0  0  0  0  0  0  0  0  0  0  0
   -0.8359    4.7649    3.2831 O   0  0  0  0  0  0  0  0  0  0  0  0
   -3.1147    2.6548    5.5559 H   0  0  0  0  0  0  0  0  0  0  0  0
   -2.6555    3.4508    7.1002 H   0  0  0  0  0  0  0  0  0  0  0  0
   -0.9688    5.6615    6.0104 H   0  0  0  0  0  0  0  0  0  0  0  0
   -1.3415    4.5121    8.1089 H   0  0  0  0  0  0  0  0  0  0  0  0
   -0.1600    6.9418    7.6128 H   0  0  0  0  0  0  0  0  0  0  0  0
   -1.0078    6.4294    9.0285 H   0  0  0  0  0  0  0  0  0  0  0  0
    1.4900    7.4502    9.0776 H   0  0  0  0  0  0  0  0  0  0  0  0
    0.9369    6.3216   10.3060 H   0  0  0  0  0  0  0  0  0  0  0  0
    3.2505    5.8998    8.9640 H   0  0  0  0  0  0  0  0  0  0  0  0
    0.2872    4.5919   10.1669 H   0  0  0  0  0  0  0  0  0  0  0  0
   -0.0245    1.6743    8.9635 H   0  0  0  0  0  0  0  0  0  0  0  0
   -0.5497    2.2003    7.4693 H   0  0  0  0  0  0  0  0  0  0  0  0
    1.9706    0.9324    8.3491 H   0  0  0  0  0  0  0  0  0  0  0  0
    1.1472    0.6014    6.9299 H   0  0  0  0  0  0  0  0  0  0  0  0
    4.3281    1.7049    6.3191 H   0  0  0  0  0  0  0  0  0  0  0  0
    4.3990    1.8064    8.9234 H   0  0  0  0  0  0  0  0  0  0  0  0
    2.8870    2.2082    9.7480 H   0  0  0  0  0  0  0  0  0  0  0  0
    4.2036    3.3163    9.7883 H   0  0  0  0  0  0  0  0  0  0  0  0
    4.8982    4.5774    8.1902 H   0  0  0  0  0  0  0  0  0  0  0  0
    6.1676    3.8516    6.5972 H   0  0  0  0  0  0  0  0  0  0  0  0
    3.5828    6.1345    6.8583 H   0  0  0  0  0  0  0  0  0  0  0  0
    5.1143    5.7967    6.2198 H   0  0  0  0  0  0  0  0  0  0  0  0
    3.5417    5.9855    4.5541 H   0  0  0  0  0  0  0  0  0  0  0  0
    4.3404    4.4776    4.4881 H   0  0  0  0  0  0  0  0  0  0  0  0
    1.3970    4.0609    2.6987 H   0  0  0  0  0  0  0  0  0  0  0  0
    3.0663    4.3096    2.7710 H   0  0  0  0  0  0  0  0  0  0  0  0
    2.0114    5.6308    2.9825 H   0  0  0  0  0  0  0  0  0  0  0  0
    1.5545    5.6379    6.4022 H   0  0  0  0  0  0  0  0  0  0  0  0
    0.5899    6.2712    3.9811 H   0  0  0  0  0  0  0  0  0  0  0  0
    2.9149    2.2019    3.1576 H   0  0  0  0  0  0  0  0  0  0  0  0
    3.2189    0.9827    4.2981 H   0  0  0  0  0  0  0  0  0  0  0  0
    4.2090    2.4028    4.3305 H   0  0  0  0  0  0  0  0  0  0  0  0
    1.0836    0.9550    4.5970 H   0  0  0  0  0  0  0  0  0  0  0  0
    0.1523    1.8932    5.5993 H   0  0  0  0  0  0  0  0  0  0  0  0
    0.2946    2.4099    2.6512 H   0  0  0  0  0  0  0  0  0  0  0  0
   -0.7630    1.5067    3.5728 H   0  0  0  0  0  0  0  0  0  0  0  0
   -2.9076    2.2465    3.4804 H   0  0  0  0  0  0  0  0  0  0  0  0
   -2.3051    3.1253    2.1052 H   0  0  0  0  0  0  0  0  0  0  0  0
   -3.2497    3.9669    3.3030 H   0  0  0  0  0  0  0  0  0  0  0  0
   -0.5656    4.5621    2.3819 H   0  0  0  0  0  0  0  0  0  0  0  0
  1  2  2  0
  1 32  1  0
  1 33  1  0
  2 29  1  0
  2  3  1  0
  3 23  1  0
  3  4  1  0
  3 34  1  1
  4  9  1  0
  4  5  1  0
  4 35  1  1
  5  6  1  0
  5 36  1  0
  5 37  1  0
  6  7  1  0
  6 38  1  0
  6 39  1  0
  7  8  2  0
  7 40  1  0
  8 15  1  0
  8  9  1  0
  9 10  1  1
  9 11  1  0
 10 41  1  0
 11 12  1  0
 11 42  1  0
 11 43  1  0
 12 13  1  0
 12 44  1  0
 12 45  1  0
 13 25  1  0
 13 14  1  6
 13 15  1  0
 14 46  1  0
 15 16  1  1
 15 17  1  0
 16 47  1  0
 16 48  1  0
 16 49  1  0
 17 18  1  0
 17 19  1  0
 17 50  1  1
 18 51  1  0
 19 20  1  0
 19 52  1  0
 19 53  1  0
 20 21  1  0
 20 54  1  0
 20 55  1  0
 21 22  1  6
 21 23  1  0
 21 25  1  0
 22 56  1  0
 22 57  1  0
 22 58  1  0
 23 24  1  0
 23 59  1  1
 24 60  1  0
 25 26  1  6
 25 27  1  0
 26 61  1  0
 26 62  1  0
 26 63  1  0
 27 28  1  0
 27 64  1  0
 27 65  1  0
 28 29  1  0
 28 66  1  0
 28 67  1  0
 29 30  1  0
 29 31  1  6
 30 68  1  0
 30 69  1  0
 30 70  1  0
 31 71  1  0
M  END
>  <i_m_ct_stereo_status>  (188) 
1

>  <s_m_source_file>  (188) 
/var/tmp/pbs.5076255.sched01/tmpl83nofxy/76c90atywu.sdf

>  <i_m_source_file_index>  (188) 
15

>  <i_lp_mmshare_version>  (188) 
48012

>  <i_f3d_flags>  (188) 
0

>  <s_epik_input>  (188) 
W09IXVtDQEBdMTJbQ0BASF0zW0NAQEhdNEMoPVtDSDJdKVtDQEBdKFtDSDNdKShbT0hdKVtDSDJdW0NIMl1bQ0BdNShbQ0gzXSlbQ0BdKFtPSF0pKFtDSDJdW0NIMl0yKVtDQF0oW0NIM10pKEMxPVtDSF1bQ0gyXVtDSDJdMylbQ0BASF0oW09IXSlbQ0gyXVtDSDJdW0NAXTUoW0NIM10pW0NASF00W09IXQ==

>  <s_epik_cmdline>  (188) 
J2VwaWtfcHl0aG9uJywgJy1waHQnLCAnMi4wJywgJy1waCcsICc3LjAnLCAnLXRuJywgJzgnLCAnLW1hJywgJzIwMCcsICctaW1hZScsICc8aW5maWxlLm1hZT4nLCAnLW9tYWUnLCAnPG91dGZpbGUubWFlPic=

>  <r_lp_tautomer_probability>  (188) 
1

>  <r_epik_Ionization_Penalty>  (188) 
3.88392e-06

>  <r_epik_Ionization_Penalty_Charging>  (188) 
0

>  <r_epik_Ionization_Penalty_Neutral>  (188) 
3.88392e-06

>  <r_epik_State_Penalty>  (188) 
-0

>  <r_epik_Charging_Adjusted_Penalty>  (188) 
0

>  <i_epik_Tot_Q>  (188) 
0

>  <i_epik_Tot_abs_Q>  (188) 
0

>  <s_lp_Force_Field>  (188) 
OPLS3e

>  <r_lp_Energy>  (188) 
178.36

>  <b_lp_Chiralities_Consistent>  (188) 
1

>  <s_lp_Variant>  (188) 
65:0-1

>  <s_i_glide_gridfile>  (188) 
pfpi4k_grid

>  <i_i_glide_lignum>  (188) 
15

>  <i_i_glide_rotatable_bonds>  (188) 
5

>  <r_i_docking_score>  (188) 
-3.51587

>  <r_i_glide_ligand_efficiency>  (188) 
-0.113415

>  <r_i_glide_ligand_efficiency_sa>  (188) 
-0.35628

>  <r_i_glide_ligand_efficiency_ln>  (188) 
-0.792936

>  <r_i_glide_gscore>  (188) 
-3.51587

>  <r_i_glide_lipo>  (188) 
-0.0637021

>  <r_i_glide_hbond>  (188) 
0

>  <r_i_glide_metal>  (188) 
-0

>  <r_i_glide_rewards>  (188) 
-1.45959

>  <r_i_glide_evdw>  (188) 
-20.8353

>  <r_i_glide_ecoul>  (188) 
-6.33873

>  <r_i_glide_erotb>  (188) 
0

>  <r_i_glide_esite>  (188) 
0

>  <r_i_glide_emodel>  (188) 
-43.4901

>  <r_i_glide_energy>  (188) 
-27.174

>  <r_i_glide_einternal>  (188) 
1.01128

>  <r_i_glide_intrahb_reward>  (188) 
-1

>  <i_i_glide_confnum>  (188) 
1

>  <i_i_glide_posenum>  (188) 
8

>  <r_i_glide_eff_state_penalty>  (188) 
0

>  <ligand_id>  (188) 
65

>  <original_smiles>  (188) 
C=C1C2C3CCC=C4C3(O)CCC3(O)C4(C)C(O)CCC(C)(C2O)C3(C)CCC1(C)O

>  <smiles>  (188) 
[H]OC1([H])C([H])([H])C([H])([H])C2(C([H])([H])[H])C([H])(O[H])C3([H])C(=C([H])[H])C(O[H])(C([H])([H])[H])C([H])([H])C([H])([H])C2(C([H])([H])[H])C2(O[H])C([H])([H])C([H])([H])C4(O[H])C(=C([H])C([H])([H])C([H])([H])C34[H])C12C([H])([H])[H]

$$$$
65:0:1
     RDKit          3D

 71 75  0  0  1  0  0  0  0  0999 V2000
   -2.1550    2.3884    5.7840 C   0  0  0  0  0  0  0  0  0  0  0  0
   -0.9440    2.5295    5.1919 C   0  0  0  0  0  0  0  0  0  0  0  0
    0.3839    2.2993    5.9926 C   0  0  1  0  0  0  0  0  0  0  0  0
    0.3107    1.4423    7.3323 C   0  0  2  0  0  0  0  0  0  0  0  0
    1.2664    2.0009    8.4483 C   0  0  0  0  0  0  0  0  0  0  0  0
    2.4258    1.0841    8.9260 C   0  0  0  0  0  0  0  0  0  0  0  0
    2.8204    0.0594    7.8878 C   0  0  0  0  0  0  0  0  0  0  0  0
    1.9509   -0.4461    6.9868 C   0  0  0  0  0  0  0  0  0  0  0  0
    0.4690   -0.1022    7.1949 C   0  0  1  0  0  0  0  0  0  0  0  0
    0.0826   -0.6185    8.4615 O   0  0  0  0  0  0  0  0  0  0  0  0
   -0.5718   -0.7899    6.2795 C   0  0  0  0  0  0  0  0  0  0  0  0
   -0.0375   -1.6268    5.1130 C   0  0  0  0  0  0  0  0  0  0  0  0
    1.3531   -1.1774    4.5660 C   0  0  2  0  0  0  0  0  0  0  0  0
    1.5958   -2.3138    3.7512 O   0  0  0  0  0  0  0  0  0  0  0  0
    2.3762   -1.3367    5.7945 C   0  0  2  0  0  0  0  0  0  0  0  0
    2.3526   -2.7697    6.4276 C   0  0  0  0  0  0  0  0  0  0  0  0
    3.8859   -1.1282    5.3945 C   0  0  1  0  0  0  0  0  0  0  0  0
    4.3092   -1.8870    4.2789 O   0  0  0  0  0  0  0  0  0  0  0  0
    4.3795    0.3020    5.2016 C   0  0  0  0  0  0  0  0  0  0  0  0
    3.7586    1.0799    4.0544 C   0  0  0  0  0  0  0  0  0  0  0  0
    2.2279    1.4302    3.9604 C   0  0  2  0  0  0  0  0  0  0  0  0
    2.3933    2.4368    2.7501 C   0  0  0  0  0  0  0  0  0  0  0  0
    1.8057    2.2267    5.2852 C   0  0  1  0  0  0  0  0  0  0  0  0
    2.3609    3.5324    5.2913 O   0  0  0  0  0  0  0  0  0  0  0  0
    1.3345    0.1421    3.5538 C   0  0  1  0  0  0  0  0  0  0  0  0
    1.8223   -0.3137    2.1179 C   0  0  0  0  0  0  0  0  0  0  0  0
   -0.1756    0.5133    3.2350 C   0  0  0  0  0  0  0  0  0  0  0  0
   -0.7076    1.8612    2.7063 C   0  0  0  0  0  0  0  0  0  0  0  0
   -0.8945    3.0315    3.7308 C   0  0  1  0  0  0  0  0  0  0  0  0
   -2.1498    3.8342    3.2936 C   0  0  0  0  0  0  0  0  0  0  0  0
    0.0838    4.0416    3.6190 O   0  0  0  0  0  0  0  0  0  0  0  0
   -3.0651    2.5632    5.2410 H   0  0  0  0  0  0  0  0  0  0  0  0
   -2.3038    2.0787    6.7989 H   0  0  0  0  0  0  0  0  0  0  0  0
    0.3820    3.3108    6.4102 H   0  0  0  0  0  0  0  0  0  0  0  0
   -0.6630    1.6018    7.7773 H   0  0  0  0  0  0  0  0  0  0  0  0
    1.7077    2.9421    8.1200 H   0  0  0  0  0  0  0  0  0  0  0  0
    0.6739    2.2746    9.3234 H   0  0  0  0  0  0  0  0  0  0  0  0
    3.2999    1.6999    9.1484 H   0  0  0  0  0  0  0  0  0  0  0  0
    2.1570    0.5570    9.8447 H   0  0  0  0  0  0  0  0  0  0  0  0
    3.8681   -0.1984    7.8796 H   0  0  0  0  0  0  0  0  0  0  0  0
    0.6912   -0.2845    9.1061 H   0  0  0  0  0  0  0  0  0  0  0  0
   -1.1963   -1.4826    6.8405 H   0  0  0  0  0  0  0  0  0  0  0  0
   -1.3031   -0.0545    5.9691 H   0  0  0  0  0  0  0  0  0  0  0  0
    0.0165   -2.6528    5.4744 H   0  0  0  0  0  0  0  0  0  0  0  0
   -0.7975   -1.7276    4.3384 H   0  0  0  0  0  0  0  0  0  0  0  0
    1.0209   -2.2522    3.0057 H   0  0  0  0  0  0  0  0  0  0  0  0
    2.4845   -3.5710    5.6996 H   0  0  0  0  0  0  0  0  0  0  0  0
    1.4386   -2.9696    6.9922 H   0  0  0  0  0  0  0  0  0  0  0  0
    3.1495   -2.8885    7.1635 H   0  0  0  0  0  0  0  0  0  0  0  0
    4.5046   -1.5213    6.2008 H   0  0  0  0  0  0  0  0  0  0  0  0
    3.7511   -1.6622    3.5447 H   0  0  0  0  0  0  0  0  0  0  0  0
    4.3613    0.9006    6.1053 H   0  0  0  0  0  0  0  0  0  0  0  0
    5.4459    0.2300    4.9910 H   0  0  0  0  0  0  0  0  0  0  0  0
    4.3053    2.0224    4.0995 H   0  0  0  0  0  0  0  0  0  0  0  0
    4.1318    0.6242    3.1370 H   0  0  0  0  0  0  0  0  0  0  0  0
    1.5188    2.7588    2.2234 H   0  0  0  0  0  0  0  0  0  0  0  0
    3.0147    2.0219    1.9588 H   0  0  0  0  0  0  0  0  0  0  0  0
    2.9193    3.3572    3.0005 H   0  0  0  0  0  0  0  0  0  0  0  0
    2.4339    1.8131    6.0498 H   0  0  0  0  0  0  0  0  0  0  0  0
    1.8934    4.0288    4.6252 H   0  0  0  0  0  0  0  0  0  0  0  0
    1.7138    0.4592    1.3593 H   0  0  0  0  0  0  0  0  0  0  0  0
    1.2307   -1.1253    1.6917 H   0  0  0  0  0  0  0  0  0  0  0  0
    2.8500   -0.6649    2.0984 H   0  0  0  0  0  0  0  0  0  0  0  0
   -0.5464   -0.2291    2.5319 H   0  0  0  0  0  0  0  0  0  0  0  0
   -0.8335    0.3603    4.0613 H   0  0  0  0  0  0  0  0  0  0  0  0
   -0.3054    2.1413    1.7357 H   0  0  0  0  0  0  0  0  0  0  0  0
   -1.7215    1.5941    2.4118 H   0  0  0  0  0  0  0  0  0  0  0  0
   -3.0525    3.2271    3.2261 H   0  0  0  0  0  0  0  0  0  0  0  0
   -2.0043    4.2687    2.3040 H   0  0  0  0  0  0  0  0  0  0  0  0
   -2.3465    4.6479    3.9864 H   0  0  0  0  0  0  0  0  0  0  0  0
    0.2038    4.2174    2.6845 H   0  0  0  0  0  0  0  0  0  0  0  0
  1  2  2  0
  1 32  1  0
  1 33  1  0
  2 29  1  0
  2  3  1  0
  3 23  1  0
  3  4  1  0
  3 34  1  1
  4  9  1  0
  4  5  1  0
  4 35  1  1
  5  6  1  0
  5 36  1  0
  5 37  1  0
  6  7  1  0
  6 38  1  0
  6 39  1  0
  7  8  2  0
  7 40  1  0
  8 15  1  0
  8  9  1  0
  9 10  1  1
  9 11  1  0
 10 41  1  0
 11 12  1  0
 11 42  1  0
 11 43  1  0
 12 13  1  0
 12 44  1  0
 12 45  1  0
 13 25  1  0
 13 14  1  6
 13 15  1  0
 14 46  1  0
 15 16  1  1
 15 17  1  0
 16 47  1  0
 16 48  1  0
 16 49  1  0
 17 18  1  0
 17 19  1  0
 17 50  1  1
 18 51  1  0
 19 20  1  0
 19 52  1  0
 19 53  1  0
 20 21  1  0
 20 54  1  0
 20 55  1  0
 21 22  1  6
 21 23  1  0
 21 25  1  0
 22 56  1  0
 22 57  1  0
 22 58  1  0
 23 24  1  0
 23 59  1  1
 24 60  1  0
 25 26  1  6
 25 27  1  0
 26 61  1  0
 26 62  1  0
 26 63  1  0
 27 28  1  0
 27 64  1  0
 27 65  1  0
 28 29  1  0
 28 66  1  0
 28 67  1  0
 29 30  1  0
 29 31  1  1
 30 68  1  0
 30 69  1  0
 30 70  1  0
 31 71  1  0
M  END
>  <i_m_ct_stereo_status>  (189) 
1

>  <s_m_source_file>  (189) 
/var/tmp/pbs.5076255.sched01/tmpl83nofxy/76c90atywu.sdf

>  <i_m_source_file_index>  (189) 
15

>  <i_lp_mmshare_version>  (189) 
48012

>  <i_f3d_flags>  (189) 
0

>  <s_epik_input>  (189) 
W09IXVtDQEBdMTJbQ0BASF0zW0NAQEhdNEMoPVtDSDJdKVtDQEBdKFtDSDNdKShbT0hdKVtDSDJdW0NIMl1bQ0BdNShbQ0gzXSlbQ0BdKFtPSF0pKFtDSDJdW0NIMl0yKVtDQF0oW0NIM10pKEMxPVtDSF1bQ0gyXVtDSDJdMylbQ0BASF0oW09IXSlbQ0gyXVtDSDJdW0NAXTUoW0NIM10pW0NASF00W09IXQ==

>  <s_epik_cmdline>  (189) 
J2VwaWtfcHl0aG9uJywgJy1waHQnLCAnMi4wJywgJy1waCcsICc3LjAnLCAnLXRuJywgJzgnLCAnLW1hJywgJzIwMCcsICctaW1hZScsICc8aW5maWxlLm1hZT4nLCAnLW9tYWUnLCAnPG91dGZpbGUubWFlPic=

>  <r_lp_tautomer_probability>  (189) 
1

>  <r_epik_Ionization_Penalty>  (189) 
3.88392e-06

>  <r_epik_Ionization_Penalty_Charging>  (189) 
0

>  <r_epik_Ionization_Penalty_Neutral>  (189) 
3.88392e-06

>  <r_epik_State_Penalty>  (189) 
-0

>  <r_epik_Charging_Adjusted_Penalty>  (189) 
0

>  <i_epik_Tot_Q>  (189) 
0

>  <i_epik_Tot_abs_Q>  (189) 
0

>  <s_lp_Force_Field>  (189) 
OPLS3e

>  <r_lp_Energy>  (189) 
178.36

>  <b_lp_Chiralities_Consistent>  (189) 
1

>  <s_lp_Variant>  (189) 
65:0-1

>  <s_i_glide_gridfile>  (189) 
pfpi4k_grid

>  <i_i_glide_lignum>  (189) 
15

>  <i_i_glide_rotatable_bonds>  (189) 
5

>  <r_i_docking_score>  (189) 
-3.23611

>  <r_i_glide_ligand_efficiency>  (189) 
-0.104391

>  <r_i_glide_ligand_efficiency_sa>  (189) 
-0.327931

>  <r_i_glide_ligand_efficiency_ln>  (189) 
-0.729843

>  <r_i_glide_gscore>  (189) 
-3.23611

>  <r_i_glide_lipo>  (189) 
-0.0503619

>  <r_i_glide_hbond>  (189) 
-0.0162131

>  <r_i_glide_metal>  (189) 
-0

>  <r_i_glide_rewards>  (189) 
-0.959595

>  <r_i_glide_evdw>  (189) 
-22.5633

>  <r_i_glide_ecoul>  (189) 
-7.21187

>  <r_i_glide_erotb>  (189) 
0

>  <r_i_glide_esite>  (189) 
0

>  <r_i_glide_emodel>  (189) 
-40.7682

>  <r_i_glide_energy>  (189) 
-29.7751

>  <r_i_glide_einternal>  (189) 
0.495085

>  <r_i_glide_intrahb_reward>  (189) 
-0.5

>  <i_i_glide_confnum>  (189) 
2

>  <i_i_glide_posenum>  (189) 
29

>  <r_i_glide_eff_state_penalty>  (189) 
0

>  <ligand_id>  (189) 
65

>  <original_smiles>  (189) 
C=C1C2C3CCC=C4C3(O)CCC3(O)C4(C)C(O)CCC(C)(C2O)C3(C)CCC1(C)O

>  <smiles>  (189) 
[H]OC1([H])C([H])([H])C([H])([H])C2(C([H])([H])[H])C([H])(O[H])C3([H])C(=C([H])[H])C(O[H])(C([H])([H])[H])C([H])([H])C([H])([H])C2(C([H])([H])[H])C2(O[H])C([H])([H])C([H])([H])C4(O[H])C(=C([H])C([H])([H])C([H])([H])C34[H])C12C([H])([H])[H]

$$$$
65:0:2
     RDKit          3D

 71 75  0  0  1  0  0  0  0  0999 V2000
   -2.3667    2.9603    5.8768 C   0  0  0  0  0  0  0  0  0  0  0  0
   -1.1784    3.0904    5.2443 C   0  0  0  0  0  0  0  0  0  0  0  0
    0.1574    3.2907    6.0370 C   0  0  1  0  0  0  0  0  0  0  0  0
    0.1844    2.8555    7.5660 C   0  0  2  0  0  0  0  0  0  0  0  0
    1.0322    3.8352    8.4552 C   0  0  0  0  0  0  0  0  0  0  0  0
    2.2975    3.2556    9.1448 C   0  0  0  0  0  0  0  0  0  0  0  0
    2.8503    2.0423    8.4354 C   0  0  0  0  0  0  0  0  0  0  0  0
    2.0688    1.1851    7.7345 C   0  0  0  0  0  0  0  0  0  0  0  0
    0.5557    1.3769    7.8713 C   0  0  1  0  0  0  0  0  0  0  0  0
    0.2070    1.1891    9.2341 O   0  0  0  0  0  0  0  0  0  0  0  0
   -0.3671    0.3240    7.2148 C   0  0  0  0  0  0  0  0  0  0  0  0
    0.2943   -0.7320    6.3232 C   0  0  0  0  0  0  0  0  0  0  0  0
    1.6186   -0.2773    5.6352 C   0  0  2  0  0  0  0  0  0  0  0  0
    2.0267   -1.5564    5.1776 O   0  0  0  0  0  0  0  0  0  0  0  0
    2.6321    0.0629    6.8360 C   0  0  2  0  0  0  0  0  0  0  0  0
    2.7934   -1.1226    7.8517 C   0  0  0  0  0  0  0  0  0  0  0  0
    4.1063    0.3452    6.3614 C   0  0  1  0  0  0  0  0  0  0  0  0
    4.6544   -0.6298    5.4962 O   0  0  0  0  0  0  0  0  0  0  0  0
    4.4008    1.7175    5.7620 C   0  0  0  0  0  0  0  0  0  0  0  0
    3.7019    2.0410    4.4545 C   0  0  0  0  0  0  0  0  0  0  0  0
    2.1402    2.1408    4.2896 C   0  0  2  0  0  0  0  0  0  0  0  0
    2.2065    2.7748    2.8372 C   0  0  0  0  0  0  0  0  0  0  0  0
    1.5888    3.2154    5.3422 C   0  0  1  0  0  0  0  0  0  0  0  0
    1.9628    4.5313    4.9696 O   0  0  0  0  0  0  0  0  0  0  0  0
    1.4383    0.6792    4.2875 C   0  0  1  0  0  0  0  0  0  0  0  0
    2.0086   -0.0955    3.0323 C   0  0  0  0  0  0  0  0  0  0  0  0
   -0.1047    0.7287    3.8995 C   0  0  0  0  0  0  0  0  0  0  0  0
   -0.8069    1.8016    3.0309 C   0  0  0  0  0  0  0  0  0  0  0  0
   -1.1719    3.1731    3.6997 C   0  0  1  0  0  0  0  0  0  0  0  0
   -2.5234    3.6316    3.1068 C   0  0  0  0  0  0  0  0  0  0  0  0
   -0.3345    4.2383    3.3007 O   0  0  0  0  0  0  0  0  0  0  0  0
   -3.2980    2.8714    5.3416 H   0  0  0  0  0  0  0  0  0  0  0  0
   -2.4892    2.9368    6.9452 H   0  0  0  0  0  0  0  0  0  0  0  0
    0.0072    4.3686    6.1460 H   0  0  0  0  0  0  0  0  0  0  0  0
   -0.8111    3.0012    7.9708 H   0  0  0  0  0  0  0  0  0  0  0  0
    1.3451    4.6958    7.8617 H   0  0  0  0  0  0  0  0  0  0  0  0
    0.3919    4.2610    9.2314 H   0  0  0  0  0  0  0  0  0  0  0  0
    3.0756    4.0223    9.1688 H   0  0  0  0  0  0  0  0  0  0  0  0
    2.0838    2.9803   10.1807 H   0  0  0  0  0  0  0  0  0  0  0  0
    3.9198    1.9358    8.4787 H   0  0  0  0  0  0  0  0  0  0  0  0
    0.6881    1.8144    9.7546 H   0  0  0  0  0  0  0  0  0  0  0  0
   -0.9035   -0.2412    7.9711 H   0  0  0  0  0  0  0  0  0  0  0  0
   -1.1882    0.8287    6.7229 H   0  0  0  0  0  0  0  0  0  0  0  0
    0.4806   -1.5953    6.9615 H   0  0  0  0  0  0  0  0  0  0  0  0
   -0.4329   -1.1561    5.6288 H   0  0  0  0  0  0  0  0  0  0  0  0
    1.4371   -1.8128    4.4853 H   0  0  0  0  0  0  0  0  0  0  0  0
    3.0449   -2.0756    7.3819 H   0  0  0  0  0  0  0  0  0  0  0  0
    1.9059   -1.2744    8.4745 H   0  0  0  0  0  0  0  0  0  0  0  0
    3.5869   -0.9179    8.5757 H   0  0  0  0  0  0  0  0  0  0  0  0
    4.7580    0.2853    7.2325 H   0  0  0  0  0  0  0  0  0  0  0  0
    4.1153   -0.6643    4.7161 H   0  0  0  0  0  0  0  0  0  0  0  0
    4.2880    2.5397    6.4581 H   0  0  0  0  0  0  0  0  0  0  0  0
    5.4704    1.7322    5.5575 H   0  0  0  0  0  0  0  0  0  0  0  0
    4.1201    3.0215    4.2177 H   0  0  0  0  0  0  0  0  0  0  0  0
    4.1493    1.3972    3.6976 H   0  0  0  0  0  0  0  0  0  0  0  0
    1.3023    2.8083    2.2660 H   0  0  0  0  0  0  0  0  0  0  0  0
    2.8974    2.2529    2.1721 H   0  0  0  0  0  0  0  0  0  0  0  0
    2.5834    3.7970    2.8092 H   0  0  0  0  0  0  0  0  0  0  0  0
    2.2512    3.1278    6.1788 H   0  0  0  0  0  0  0  0  0  0  0  0
    1.4627    4.7471    4.1876 H   0  0  0  0  0  0  0  0  0  0  0  0
    1.8123    0.4124    2.0896 H   0  0  0  0  0  0  0  0  0  0  0  0
    1.5410   -1.0678    2.8696 H   0  0  0  0  0  0  0  0  0  0  0  0
    3.0751   -0.2926    3.0930 H   0  0  0  0  0  0  0  0  0  0  0  0
   -0.3689   -0.2330    3.4537 H   0  0  0  0  0  0  0  0  0  0  0  0
   -0.7440    0.7326    4.7542 H   0  0  0  0  0  0  0  0  0  0  0  0
   -0.4335    1.8725    2.0104 H   0  0  0  0  0  0  0  0  0  0  0  0
   -1.7689    1.3252    2.8403 H   0  0  0  0  0  0  0  0  0  0  0  0
   -3.3383    2.9179    3.2312 H   0  0  0  0  0  0  0  0  0  0  0  0
   -2.4080    3.7608    2.0438 H   0  0  0  0  0  0  0  0  0  0  0  0
   -2.8337    4.5931    3.5019 H   0  0  0  0  0  0  0  0  0  0  0  0
   -0.1906    4.1888    2.3397 H   0  0  0  0  0  0  0  0  0  0  0  0
  1  2  2  0
  1 32  1  0
  1 33  1  0
  2 29  1  0
  2  3  1  0
  3 23  1  0
  3  4  1  0
  3 34  1  1
  4  9  1  0
  4  5  1  0
  4 35  1  1
  5  6  1  0
  5 36  1  0
  5 37  1  0
  6  7  1  0
  6 38  1  0
  6 39  1  0
  7  8  2  0
  7 40  1  0
  8 15  1  0
  8  9  1  0
  9 10  1  1
  9 11  1  0
 10 41  1  0
 11 12  1  0
 11 42  1  0
 11 43  1  0
 12 13  1  0
 12 44  1  0
 12 45  1  0
 13 25  1  0
 13 14  1  6
 13 15  1  0
 14 46  1  0
 15 16  1  1
 15 17  1  0
 16 47  1  0
 16 48  1  0
 16 49  1  0
 17 18  1  0
 17 19  1  0
 17 50  1  1
 18 51  1  0
 19 20  1  0
 19 52  1  0
 19 53  1  0
 20 21  1  0
 20 54  1  0
 20 55  1  0
 21 22  1  6
 21 23  1  0
 21 25  1  0
 22 56  1  0
 22 57  1  0
 22 58  1  0
 23 24  1  0
 23 59  1  1
 24 60  1  0
 25 26  1  6
 25 27  1  0
 26 61  1  0
 26 62  1  0
 26 63  1  0
 27 28  1  0
 27 64  1  0
 27 65  1  0
 28 29  1  0
 28 66  1  0
 28 67  1  0
 29 30  1  0
 29 31  1  1
 30 68  1  0
 30 69  1  0
 30 70  1  0
 31 71  1  0
M  END
>  <i_m_ct_stereo_status>  (190) 
1

>  <s_m_source_file>  (190) 
/var/tmp/pbs.5076255.sched01/tmpl83nofxy/76c90atywu.sdf

>  <i_m_source_file_index>  (190) 
15

>  <i_lp_mmshare_version>  (190) 
48012

>  <i_f3d_flags>  (190) 
0

>  <s_epik_input>  (190) 
W09IXVtDQEBdMTJbQ0BASF0zW0NAQEhdNEMoPVtDSDJdKVtDQEBdKFtDSDNdKShbT0hdKVtDSDJdW0NIMl1bQ0BdNShbQ0gzXSlbQ0BdKFtPSF0pKFtDSDJdW0NIMl0yKVtDQF0oW0NIM10pKEMxPVtDSF1bQ0gyXVtDSDJdMylbQ0BASF0oW09IXSlbQ0gyXVtDSDJdW0NAXTUoW0NIM10pW0NASF00W09IXQ==

>  <s_epik_cmdline>  (190) 
J2VwaWtfcHl0aG9uJywgJy1waHQnLCAnMi4wJywgJy1waCcsICc3LjAnLCAnLXRuJywgJzgnLCAnLW1hJywgJzIwMCcsICctaW1hZScsICc8aW5maWxlLm1hZT4nLCAnLW9tYWUnLCAnPG91dGZpbGUubWFlPic=

>  <r_lp_tautomer_probability>  (190) 
1

>  <r_epik_Ionization_Penalty>  (190) 
3.88392e-06

>  <r_epik_Ionization_Penalty_Charging>  (190) 
0

>  <r_epik_Ionization_Penalty_Neutral>  (190) 
3.88392e-06

>  <r_epik_State_Penalty>  (190) 
-0

>  <r_epik_Charging_Adjusted_Penalty>  (190) 
0

>  <i_epik_Tot_Q>  (190) 
0

>  <i_epik_Tot_abs_Q>  (190) 
0

>  <s_lp_Force_Field>  (190) 
OPLS3e

>  <r_lp_Energy>  (190) 
178.36

>  <b_lp_Chiralities_Consistent>  (190) 
1

>  <s_lp_Variant>  (190) 
65:0-1

>  <s_i_glide_gridfile>  (190) 
pfpi4k_grid

>  <i_i_glide_lignum>  (190) 
15

>  <i_i_glide_rotatable_bonds>  (190) 
5

>  <r_i_docking_score>  (190) 
-3.10351

>  <r_i_glide_ligand_efficiency>  (190) 
-0.100113

>  <r_i_glide_ligand_efficiency_sa>  (190) 
-0.314494

>  <r_i_glide_ligand_efficiency_ln>  (190) 
-0.699937

>  <r_i_glide_gscore>  (190) 
-3.10351

>  <r_i_glide_lipo>  (190) 
-0.0587398

>  <r_i_glide_hbond>  (190) 
0

>  <r_i_glide_metal>  (190) 
-0

>  <r_i_glide_rewards>  (190) 
-0.959595

>  <r_i_glide_evdw>  (190) 
-20.2504

>  <r_i_glide_ecoul>  (190) 
-7.15103

>  <r_i_glide_erotb>  (190) 
0

>  <r_i_glide_esite>  (190) 
0

>  <r_i_glide_emodel>  (190) 
-38.1123

>  <r_i_glide_energy>  (190) 
-27.4014

>  <r_i_glide_einternal>  (190) 
0.504413

>  <r_i_glide_intrahb_reward>  (190) 
-0.5

>  <i_i_glide_confnum>  (190) 
2

>  <i_i_glide_posenum>  (190) 
36

>  <r_i_glide_eff_state_penalty>  (190) 
0

>  <ligand_id>  (190) 
65

>  <original_smiles>  (190) 
C=C1C2C3CCC=C4C3(O)CCC3(O)C4(C)C(O)CCC(C)(C2O)C3(C)CCC1(C)O

>  <smiles>  (190) 
[H]OC1([H])C([H])([H])C([H])([H])C2(C([H])([H])[H])C([H])(O[H])C3([H])C(=C([H])[H])C(O[H])(C([H])([H])[H])C([H])([H])C([H])([H])C2(C([H])([H])[H])C2(O[H])C([H])([H])C([H])([H])C4(O[H])C(=C([H])C([H])([H])C([H])([H])C34[H])C12C([H])([H])[H]

$$$$
67:0:0
     RDKit          3D

 23 26  0  0  1  0  0  0  0  0999 V2000
    0.3220   -6.2602    1.2130 O   0  0  0  0  0  0  0  0  0  0  0  0
    1.2517   -6.9906    1.5517 C   0  0  0  0  0  0  0  0  0  0  0  0
    2.6803   -6.6404    1.3054 C   0  0  0  0  0  0  0  0  0  0  0  0
    3.2604   -5.4812    0.6994 C   0  0  0  0  0  0  0  0  0  0  0  0
    4.6068   -5.5397    0.6695 C   0  0  0  0  0  0  0  0  0  0  0  0
    5.2472   -7.0049    1.3437 S   0  0  0  0  0  0  0  0  0  0  0  0
    3.6221   -7.5603    1.7062 C   0  0  0  0  0  0  0  0  0  0  0  0
    3.4106   -8.7796    2.3100 N   0  0  0  0  0  0  0  0  0  0  0  0
    2.1488   -9.0451    2.5113 C   0  0  0  0  0  0  0  0  0  0  0  0
    1.4513  -10.5274    3.2796 S   0  0  0  0  0  0  0  0  0  0  0  0
   -0.1350   -9.8030    3.0329 C   0  0  0  0  0  0  0  0  0  0  0  0
   -0.1715   -8.6450    2.4892 N   0  0  0  0  0  0  0  0  0  0  0  0
    1.0762   -8.1906    2.1690 N   0  0  0  0  0  0  0  0  0  0  0  0
    5.2821   -4.3822    0.0661 C   0  0  0  0  0  0  0  0  0  0  0  0
    4.0923   -3.5346   -0.4402 C   0  0  0  0  0  0  0  0  0  0  0  0
    2.7835   -4.2054    0.0793 C   0  0  0  0  0  0  0  0  0  0  0  0
   -0.9907  -10.3821    3.3600 H   0  0  0  0  0  0  0  0  0  0  0  0
    5.8744   -3.8627    0.8154 H   0  0  0  0  0  0  0  0  0  0  0  0
    5.9453   -4.6923   -0.7359 H   0  0  0  0  0  0  0  0  0  0  0  0
    4.1842   -2.4968   -0.1261 H   0  0  0  0  0  0  0  0  0  0  0  0
    4.0998   -3.5455   -1.5296 H   0  0  0  0  0  0  0  0  0  0  0  0
    2.0849   -4.3850   -0.7396 H   0  0  0  0  0  0  0  0  0  0  0  0
    2.2979   -3.5684    0.8219 H   0  0  0  0  0  0  0  0  0  0  0  0
  1  2  2  0
  2 13  1  0
  2  3  1  0
  3  7  2  0
  3  4  1  0
  4 16  1  0
  4  5  2  0
  5  6  1  0
  5 14  1  0
  6  7  1  0
  7  8  1  0
  8  9  2  0
  9 13  1  0
  9 10  1  0
 10 11  1  0
 11 12  2  0
 11 17  1  0
 12 13  1  0
 14 15  1  0
 14 18  1  0
 14 19  1  0
 15 16  1  0
 15 20  1  0
 15 21  1  0
 16 22  1  0
 16 23  1  0
M  END
>  <i_m_ct_stereo_status>  (191) 
1

>  <s_m_source_file>  (191) 
/var/tmp/pbs.5076255.sched01/tmpl83nofxy/76c90atywu.sdf

>  <i_m_source_file_index>  (191) 
18

>  <i_lp_mmshare_version>  (191) 
48012

>  <i_f3d_flags>  (191) 
0

>  <s_epik_input>  (191) 
czFbY0hdbm4oYzI9TyljMW5jM3NjKGM0YzIzKVtDSDJdW0NIMl1bQ0gyXTQ=

>  <s_epik_cmdline>  (191) 
J2VwaWtfcHl0aG9uJywgJy1waHQnLCAnMi4wJywgJy1waCcsICc3LjAnLCAnLXRuJywgJzgnLCAnLW1hJywgJzIwMCcsICctaW1hZScsICc8aW5maWxlLm1hZT4nLCAnLW9tYWUnLCAnPG91dGZpbGUubWFlPic=

>  <r_lp_tautomer_probability>  (191) 
1

>  <r_epik_Ionization_Penalty>  (191) 
4.90629e-08

>  <r_epik_Ionization_Penalty_Charging>  (191) 
0

>  <r_epik_Ionization_Penalty_Neutral>  (191) 
4.90629e-08

>  <r_epik_State_Penalty>  (191) 
-0

>  <r_epik_Charging_Adjusted_Penalty>  (191) 
0

>  <i_epik_Tot_Q>  (191) 
0

>  <i_epik_Tot_abs_Q>  (191) 
0

>  <s_lp_Force_Field>  (191) 
OPLS3e

>  <r_lp_Energy>  (191) 
33.7146

>  <b_lp_Chiralities_Consistent>  (191) 
1

>  <s_lp_Variant>  (191) 
67:0-1

>  <s_i_glide_gridfile>  (191) 
pfpi4k_grid

>  <i_i_glide_lignum>  (191) 
18

>  <i_i_glide_rotatable_bonds>  (191) 
0

>  <r_i_docking_score>  (191) 
-4.30797

>  <r_i_glide_ligand_efficiency>  (191) 
-0.269248

>  <r_i_glide_ligand_efficiency_sa>  (191) 
-0.678463

>  <r_i_glide_ligand_efficiency_ln>  (191) 
-1.14191

>  <r_i_glide_gscore>  (191) 
-4.30797

>  <r_i_glide_lipo>  (191) 
-0.410524

>  <r_i_glide_hbond>  (191) 
-0.174796

>  <r_i_glide_metal>  (191) 
-0

>  <r_i_glide_rewards>  (191) 
-1.73966

>  <r_i_glide_evdw>  (191) 
-23.5669

>  <r_i_glide_ecoul>  (191) 
-5.13374

>  <r_i_glide_erotb>  (191) 
0

>  <r_i_glide_esite>  (191) 
-0.0345849

>  <r_i_glide_emodel>  (191) 
-37.3122

>  <r_i_glide_energy>  (191) 
-28.7006

>  <r_i_glide_einternal>  (191) 
0

>  <r_i_glide_intrahb_reward>  (191) 
-0

>  <i_i_glide_confnum>  (191) 
1

>  <i_i_glide_posenum>  (191) 
1

>  <r_i_glide_eff_state_penalty>  (191) 
0

>  <ligand_id>  (191) 
67

>  <original_smiles>  (191) 
O=c1c2c3c(sc2nc2scnn12)CCC3

>  <smiles>  (191) 
[H]c1nn2c(=O)c3c4c(sc3nc2s1)C([H])([H])C([H])([H])C4([H])[H]

$$$$
67:0:1
     RDKit          3D

 23 26  0  0  1  0  0  0  0  0999 V2000
    0.7086   -6.2579    0.9473 O   0  0  0  0  0  0  0  0  0  0  0  0
    1.3906   -7.1110    1.5223 C   0  0  0  0  0  0  0  0  0  0  0  0
    2.8805   -7.0588    1.5503 C   0  0  0  0  0  0  0  0  0  0  0  0
    3.7883   -6.1035    1.0011 C   0  0  0  0  0  0  0  0  0  0  0  0
    5.0750   -6.4148    1.2500 C   0  0  0  0  0  0  0  0  0  0  0  0
    5.2718   -7.8937    2.1327 S   0  0  0  0  0  0  0  0  0  0  0  0
    3.5295   -8.0898    2.1936 C   0  0  0  0  0  0  0  0  0  0  0  0
    2.9692   -9.1770    2.8192 N   0  0  0  0  0  0  0  0  0  0  0  0
    1.6676   -9.1830    2.7770 C   0  0  0  0  0  0  0  0  0  0  0  0
    0.5725  -10.4254    3.4666 S   0  0  0  0  0  0  0  0  0  0  0  0
   -0.7794   -9.4524    2.8811 C   0  0  0  0  0  0  0  0  0  0  0  0
   -0.4883   -8.3583    2.2783 N   0  0  0  0  0  0  0  0  0  0  0  0
    0.8640   -8.1802    2.1730 N   0  0  0  0  0  0  0  0  0  0  0  0
    6.0735   -5.4737    0.7260 C   0  0  0  0  0  0  0  0  0  0  0  0
    5.1948   -4.4779   -0.0672 C   0  0  0  0  0  0  0  0  0  0  0  0
    3.7026   -4.8342    0.2178 C   0  0  0  0  0  0  0  0  0  0  0  0
   -1.7784   -9.8455    3.0772 H   0  0  0  0  0  0  0  0  0  0  0  0
    6.6067   -4.9951    1.5451 H   0  0  0  0  0  0  0  0  0  0  0  0
    6.8009   -5.9842    0.0978 H   0  0  0  0  0  0  0  0  0  0  0  0
    5.4339   -3.4475    0.1898 H   0  0  0  0  0  0  0  0  0  0  0  0
    5.4037   -4.6038   -1.1294 H   0  0  0  0  0  0  0  0  0  0  0  0
    3.1471   -4.9621   -0.7123 H   0  0  0  0  0  0  0  0  0  0  0  0
    3.2219   -4.0482    0.8012 H   0  0  0  0  0  0  0  0  0  0  0  0
  1  2  2  0
  2 13  1  0
  2  3  1  0
  3  7  2  0
  3  4  1  0
  4 16  1  0
  4  5  2  0
  5  6  1  0
  5 14  1  0
  6  7  1  0
  7  8  1  0
  8  9  2  0
  9 13  1  0
  9 10  1  0
 10 11  1  0
 11 12  2  0
 11 17  1  0
 12 13  1  0
 14 15  1  0
 14 18  1  0
 14 19  1  0
 15 16  1  0
 15 20  1  0
 15 21  1  0
 16 22  1  0
 16 23  1  0
M  END
>  <i_m_ct_stereo_status>  (192) 
1

>  <s_m_source_file>  (192) 
/var/tmp/pbs.5076255.sched01/tmpl83nofxy/76c90atywu.sdf

>  <i_m_source_file_index>  (192) 
18

>  <i_lp_mmshare_version>  (192) 
48012

>  <i_f3d_flags>  (192) 
0

>  <s_epik_input>  (192) 
czFbY0hdbm4oYzI9TyljMW5jM3NjKGM0YzIzKVtDSDJdW0NIMl1bQ0gyXTQ=

>  <s_epik_cmdline>  (192) 
J2VwaWtfcHl0aG9uJywgJy1waHQnLCAnMi4wJywgJy1waCcsICc3LjAnLCAnLXRuJywgJzgnLCAnLW1hJywgJzIwMCcsICctaW1hZScsICc8aW5maWxlLm1hZT4nLCAnLW9tYWUnLCAnPG91dGZpbGUubWFlPic=

>  <r_lp_tautomer_probability>  (192) 
1

>  <r_epik_Ionization_Penalty>  (192) 
4.90629e-08

>  <r_epik_Ionization_Penalty_Charging>  (192) 
0

>  <r_epik_Ionization_Penalty_Neutral>  (192) 
4.90629e-08

>  <r_epik_State_Penalty>  (192) 
-0

>  <r_epik_Charging_Adjusted_Penalty>  (192) 
0

>  <i_epik_Tot_Q>  (192) 
0

>  <i_epik_Tot_abs_Q>  (192) 
0

>  <s_lp_Force_Field>  (192) 
OPLS3e

>  <r_lp_Energy>  (192) 
33.7146

>  <b_lp_Chiralities_Consistent>  (192) 
1

>  <s_lp_Variant>  (192) 
67:0-1

>  <s_i_glide_gridfile>  (192) 
pfpi4k_grid

>  <i_i_glide_lignum>  (192) 
18

>  <i_i_glide_rotatable_bonds>  (192) 
0

>  <r_i_docking_score>  (192) 
-4.19813

>  <r_i_glide_ligand_efficiency>  (192) 
-0.262383

>  <r_i_glide_ligand_efficiency_sa>  (192) 
-0.661164

>  <r_i_glide_ligand_efficiency_ln>  (192) 
-1.1128

>  <r_i_glide_gscore>  (192) 
-4.19813

>  <r_i_glide_lipo>  (192) 
-0.364384

>  <r_i_glide_hbond>  (192) 
-0.16

>  <r_i_glide_metal>  (192) 
-0

>  <r_i_glide_rewards>  (192) 
-1.7336

>  <r_i_glide_evdw>  (192) 
-23.4811

>  <r_i_glide_ecoul>  (192) 
-4.84694

>  <r_i_glide_erotb>  (192) 
0

>  <r_i_glide_esite>  (192) 
-0.039041

>  <r_i_glide_emodel>  (192) 
-36.7234

>  <r_i_glide_energy>  (192) 
-28.3281

>  <r_i_glide_einternal>  (192) 
0

>  <r_i_glide_intrahb_reward>  (192) 
-0

>  <i_i_glide_confnum>  (192) 
1

>  <i_i_glide_posenum>  (192) 
26

>  <r_i_glide_eff_state_penalty>  (192) 
0

>  <ligand_id>  (192) 
67

>  <original_smiles>  (192) 
O=c1c2c3c(sc2nc2scnn12)CCC3

>  <smiles>  (192) 
[H]c1nn2c(=O)c3c4c(sc3nc2s1)C([H])([H])C([H])([H])C4([H])[H]

$$$$
67:0:2
     RDKit          3D

 23 26  0  0  1  0  0  0  0  0999 V2000
    0.6548   -6.3295    1.3886 O   0  0  0  0  0  0  0  0  0  0  0  0
    1.8653   -6.5581    1.2876 C   0  0  0  0  0  0  0  0  0  0  0  0
    2.5032   -7.8105    1.7940 C   0  0  0  0  0  0  0  0  0  0  0  0
    1.9444   -8.9434    2.4648 C   0  0  0  0  0  0  0  0  0  0  0  0
    2.8662   -9.8851    2.7454 C   0  0  0  0  0  0  0  0  0  0  0  0
    4.4668   -9.4570    2.2304 S   0  0  0  0  0  0  0  0  0  0  0  0
    3.8615   -7.9409    1.5993 C   0  0  0  0  0  0  0  0  0  0  0  0
    4.7224   -7.0516    0.9983 N   0  0  0  0  0  0  0  0  0  0  0  0
    4.1353   -5.9689    0.5768 C   0  0  0  0  0  0  0  0  0  0  0  0
    4.8992   -4.5622   -0.2535 S   0  0  0  0  0  0  0  0  0  0  0  0
    3.2986   -3.8311   -0.3272 C   0  0  0  0  0  0  0  0  0  0  0  0
    2.3347   -4.5083    0.1755 N   0  0  0  0  0  0  0  0  0  0  0  0
    2.7452   -5.6981    0.6990 N   0  0  0  0  0  0  0  0  0  0  0  0
    2.3651  -11.0891    3.4312 C   0  0  0  0  0  0  0  0  0  0  0  0
    0.8809  -10.7256    3.6774 C   0  0  0  0  0  0  0  0  0  0  0  0
    0.5975   -9.3777    2.9419 C   0  0  0  0  0  0  0  0  0  0  0  0
    3.2224   -2.8512   -0.7966 H   0  0  0  0  0  0  0  0  0  0  0  0
    2.4720  -11.9653    2.7914 H   0  0  0  0  0  0  0  0  0  0  0  0
    2.9075  -11.2773    4.3576 H   0  0  0  0  0  0  0  0  0  0  0  0
    0.2144  -11.5227    3.3525 H   0  0  0  0  0  0  0  0  0  0  0  0
    0.7241  -10.6007    4.7489 H   0  0  0  0  0  0  0  0  0  0  0  0
    0.1504   -8.6475    3.6179 H   0  0  0  0  0  0  0  0  0  0  0  0
   -0.0805   -9.5317    2.1007 H   0  0  0  0  0  0  0  0  0  0  0  0
  1  2  2  0
  2 13  1  0
  2  3  1  0
  3  7  2  0
  3  4  1  0
  4 16  1  0
  4  5  2  0
  5  6  1  0
  5 14  1  0
  6  7  1  0
  7  8  1  0
  8  9  2  0
  9 13  1  0
  9 10  1  0
 10 11  1  0
 11 12  2  0
 11 17  1  0
 12 13  1  0
 14 15  1  0
 14 18  1  0
 14 19  1  0
 15 16  1  0
 15 20  1  0
 15 21  1  0
 16 22  1  0
 16 23  1  0
M  END
>  <i_m_ct_stereo_status>  (193) 
1

>  <s_m_source_file>  (193) 
/var/tmp/pbs.5076255.sched01/tmpl83nofxy/76c90atywu.sdf

>  <i_m_source_file_index>  (193) 
18

>  <i_lp_mmshare_version>  (193) 
48012

>  <i_f3d_flags>  (193) 
0

>  <s_epik_input>  (193) 
czFbY0hdbm4oYzI9TyljMW5jM3NjKGM0YzIzKVtDSDJdW0NIMl1bQ0gyXTQ=

>  <s_epik_cmdline>  (193) 
J2VwaWtfcHl0aG9uJywgJy1waHQnLCAnMi4wJywgJy1waCcsICc3LjAnLCAnLXRuJywgJzgnLCAnLW1hJywgJzIwMCcsICctaW1hZScsICc8aW5maWxlLm1hZT4nLCAnLW9tYWUnLCAnPG91dGZpbGUubWFlPic=

>  <r_lp_tautomer_probability>  (193) 
1

>  <r_epik_Ionization_Penalty>  (193) 
4.90629e-08

>  <r_epik_Ionization_Penalty_Charging>  (193) 
0

>  <r_epik_Ionization_Penalty_Neutral>  (193) 
4.90629e-08

>  <r_epik_State_Penalty>  (193) 
-0

>  <r_epik_Charging_Adjusted_Penalty>  (193) 
0

>  <i_epik_Tot_Q>  (193) 
0

>  <i_epik_Tot_abs_Q>  (193) 
0

>  <s_lp_Force_Field>  (193) 
OPLS3e

>  <r_lp_Energy>  (193) 
33.7146

>  <b_lp_Chiralities_Consistent>  (193) 
1

>  <s_lp_Variant>  (193) 
67:0-1

>  <s_i_glide_gridfile>  (193) 
pfpi4k_grid

>  <i_i_glide_lignum>  (193) 
18

>  <i_i_glide_rotatable_bonds>  (193) 
0

>  <r_i_docking_score>  (193) 
-4.0305

>  <r_i_glide_ligand_efficiency>  (193) 
-0.251906

>  <r_i_glide_ligand_efficiency_sa>  (193) 
-0.634764

>  <r_i_glide_ligand_efficiency_ln>  (193) 
-1.06836

>  <r_i_glide_gscore>  (193) 
-4.0305

>  <r_i_glide_lipo>  (193) 
-0.15153

>  <r_i_glide_hbond>  (193) 
-0.16

>  <r_i_glide_metal>  (193) 
-0

>  <r_i_glide_rewards>  (193) 
-1.84211

>  <r_i_glide_evdw>  (193) 
-23.8072

>  <r_i_glide_ecoul>  (193) 
-4.39434

>  <r_i_glide_erotb>  (193) 
0

>  <r_i_glide_esite>  (193) 
-0.0273474

>  <r_i_glide_emodel>  (193) 
-36.2521

>  <r_i_glide_energy>  (193) 
-28.2016

>  <r_i_glide_einternal>  (193) 
0

>  <r_i_glide_intrahb_reward>  (193) 
-0

>  <i_i_glide_confnum>  (193) 
1

>  <i_i_glide_posenum>  (193) 
2

>  <r_i_glide_eff_state_penalty>  (193) 
0

>  <ligand_id>  (193) 
67

>  <original_smiles>  (193) 
O=c1c2c3c(sc2nc2scnn12)CCC3

>  <smiles>  (193) 
[H]c1nn2c(=O)c3c4c(sc3nc2s1)C([H])([H])C([H])([H])C4([H])[H]

$$$$
69:0:0
     RDKit          3D

 78 83  0  0  1  0  0  0  0  0999 V2000
    6.0714   -2.3286    6.6714 C   0  0  0  0  0  0  0  0  0  0  0  0
    5.0010   -2.2367    5.5884 C   0  0  0  0  0  0  0  0  0  0  0  0
    4.5340   -0.8177    5.3111 C   0  0  0  0  0  0  0  0  0  0  0  0
    4.4833   -3.2806    4.9004 C   0  0  0  0  0  0  0  0  0  0  0  0
    4.8700   -4.7569    5.0041 C   0  0  0  0  0  0  0  0  0  0  0  0
    5.1778   -5.4459    3.6471 C   0  0  1  0  0  0  0  0  0  0  0  0
    6.2179   -4.7549    3.0446 O   0  0  0  0  0  0  0  0  0  0  0  0
    6.0613   -4.8128    1.6438 C   0  0  1  0  0  0  0  0  0  0  0  0
    6.8613   -6.0444    1.0978 C   0  0  1  0  0  0  0  0  0  0  0  0
    8.3530   -5.6734    1.0675 C   0  0  0  0  0  0  0  0  0  0  0  0
    8.7817   -4.8166    0.2883 O   0  0  0  0  0  0  0  0  0  0  0  0
    6.7066   -7.4508    1.7739 C   0  0  2  0  0  0  0  0  0  0  0  0
    5.5215   -8.2709    1.3210 C   0  0  0  0  0  0  0  0  0  0  0  0
    4.9330   -8.9033    2.3347 C   0  0  0  0  0  0  0  0  0  0  0  0
    5.8624   -8.8880    3.5317 C   0  0  1  0  0  0  0  0  0  0  0  0
    6.7418   -9.9972    3.4687 O   0  0  0  0  0  0  0  0  0  0  0  0
    6.5724   -7.5341    3.3234 C   0  0  1  0  0  0  0  0  0  0  0  0
    7.8877   -7.3723    4.1070 C   0  0  0  0  0  0  0  0  0  0  0  0
    5.5614   -6.7431    3.9729 O   0  0  0  0  0  0  0  0  0  0  0  0
    3.3865   -9.0643    2.3709 C   0  0  1  0  0  0  0  0  0  0  0  0
    3.0153   -9.4582    1.0537 O   0  0  0  0  0  0  0  0  0  0  0  0
    2.6860   -9.9945    3.4051 C   0  0  2  0  0  0  0  0  0  0  0  0
    3.3578  -11.2399    3.4931 O   0  0  0  0  0  0  0  0  0  0  0  0
    1.1939  -10.1900    2.9929 C   0  0  0  0  0  0  0  0  0  0  0  0
    0.4103   -8.8664    2.7731 C   0  0  0  0  0  0  0  0  0  0  0  0
    1.2522   -7.6582    2.2593 C   0  0  1  0  0  0  0  0  0  0  0  0
    0.4893   -6.3462    2.5255 C   0  0  0  0  0  0  0  0  0  0  0  0
    2.7283   -7.7057    2.7974 C   0  0  1  0  0  0  0  0  0  0  0  0
    2.7088   -7.7576    4.3584 C   0  0  0  0  0  0  0  0  0  0  0  0
    2.7214   -9.2419    4.7565 C   0  0  1  0  0  0  0  0  0  0  0  0
    1.7024   -9.6180    5.8517 C   0  0  0  0  0  0  0  0  0  0  0  0
    3.5429   -6.7012    2.1583 O   0  0  0  0  0  0  0  0  0  0  0  0
    3.9487   -5.4284    2.6621 C   0  0  2  0  0  0  0  0  0  0  0  0
    4.5337   -4.6436    1.4637 C   0  0  0  0  0  0  0  0  0  0  0  0
    4.1606   -3.1383    1.5824 C   0  0  0  0  0  0  0  0  0  0  0  0
    4.0234   -5.0921    0.0702 C   0  0  0  0  0  0  0  0  0  0  0  0
    5.6356   -2.0115    7.6172 H   0  0  0  0  0  0  0  0  0  0  0  0
    6.9178   -1.6679    6.4593 H   0  0  0  0  0  0  0  0  0  0  0  0
    6.4623   -3.3328    6.8162 H   0  0  0  0  0  0  0  0  0  0  0  0
    4.0806   -0.3834    6.1994 H   0  0  0  0  0  0  0  0  0  0  0  0
    3.8029   -0.7880    4.5043 H   0  0  0  0  0  0  0  0  0  0  0  0
    5.3724   -0.1868    5.0120 H   0  0  0  0  0  0  0  0  0  0  0  0
    3.6984   -3.0568    4.1877 H   0  0  0  0  0  0  0  0  0  0  0  0
    5.7398   -4.9224    5.6464 H   0  0  0  0  0  0  0  0  0  0  0  0
    4.0337   -5.2723    5.4710 H   0  0  0  0  0  0  0  0  0  0  0  0
    6.5148   -3.9145    1.2264 H   0  0  0  0  0  0  0  0  0  0  0  0
    6.5963   -6.1570    0.0483 H   0  0  0  0  0  0  0  0  0  0  0  0
    8.9991   -6.2079    1.7613 H   0  0  0  0  0  0  0  0  0  0  0  0
    7.5628   -8.0576    1.4734 H   0  0  0  0  0  0  0  0  0  0  0  0
    5.0252   -8.0358    0.3896 H   0  0  0  0  0  0  0  0  0  0  0  0
    5.3950   -8.9248    4.5003 H   0  0  0  0  0  0  0  0  0  0  0  0
    6.2059  -10.7718    3.5344 H   0  0  0  0  0  0  0  0  0  0  0  0
    8.6881   -7.9994    3.7072 H   0  0  0  0  0  0  0  0  0  0  0  0
    7.7554   -7.6494    5.1548 H   0  0  0  0  0  0  0  0  0  0  0  0
    8.2423   -6.3396    4.0895 H   0  0  0  0  0  0  0  0  0  0  0  0
    3.3828  -10.3189    0.8924 H   0  0  0  0  0  0  0  0  0  0  0  0
    3.2748  -11.6917    2.6661 H   0  0  0  0  0  0  0  0  0  0  0  0
    1.1238  -10.7694    2.0808 H   0  0  0  0  0  0  0  0  0  0  0  0
    0.6598  -10.8191    3.7026 H   0  0  0  0  0  0  0  0  0  0  0  0
   -0.4083   -9.0621    2.0820 H   0  0  0  0  0  0  0  0  0  0  0  0
   -0.0884   -8.5997    3.7057 H   0  0  0  0  0  0  0  0  0  0  0  0
    1.2915   -7.7371    1.1695 H   0  0  0  0  0  0  0  0  0  0  0  0
    0.3153   -6.1686    3.5843 H   0  0  0  0  0  0  0  0  0  0  0  0
   -0.4872   -6.3965    2.0464 H   0  0  0  0  0  0  0  0  0  0  0  0
    1.0184   -5.4895    2.1192 H   0  0  0  0  0  0  0  0  0  0  0  0
    3.5654   -7.3097    4.8298 H   0  0  0  0  0  0  0  0  0  0  0  0
    1.8560   -7.2321    4.7851 H   0  0  0  0  0  0  0  0  0  0  0  0
    3.6528   -9.4845    5.2439 H   0  0  0  0  0  0  0  0  0  0  0  0
    0.6758   -9.3619    5.6013 H   0  0  0  0  0  0  0  0  0  0  0  0
    1.9395   -9.1035    6.7837 H   0  0  0  0  0  0  0  0  0  0  0  0
    1.7394  -10.6850    6.0686 H   0  0  0  0  0  0  0  0  0  0  0  0
    3.0909   -4.9355    3.1085 H   0  0  0  0  0  0  0  0  0  0  0  0
    3.0777   -3.0065    1.5917 H   0  0  0  0  0  0  0  0  0  0  0  0
    4.5245   -2.5811    0.7054 H   0  0  0  0  0  0  0  0  0  0  0  0
    4.5527   -2.6967    2.4927 H   0  0  0  0  0  0  0  0  0  0  0  0
    2.9407   -4.9952   -0.0040 H   0  0  0  0  0  0  0  0  0  0  0  0
    4.2733   -6.1220   -0.1732 H   0  0  0  0  0  0  0  0  0  0  0  0
    4.4596   -4.4730   -0.7118 H   0  0  0  0  0  0  0  0  0  0  0  0
  1  2  1  0
  1 37  1  0
  1 38  1  0
  1 39  1  0
  2  3  1  0
  2  4  2  3
  3 40  1  0
  3 41  1  0
  3 42  1  0
  4  5  1  0
  4 43  1  0
  6  5  1  1
  5 44  1  0
  5 45  1  0
  6 19  1  0
  6 33  1  0
  6  7  1  0
  7  8  1  0
  8 34  1  0
  8  9  1  0
  8 46  1  6
  9 10  1  0
  9 12  1  0
  9 47  1  6
 10 11  2  0
 10 48  1  0
 12 17  1  0
 12 13  1  0
 12 49  1  1
 13 14  2  0
 13 50  1  0
 14 15  1  0
 14 20  1  0
 15 16  1  0
 15 17  1  0
 15 51  1  1
 16 52  1  0
 17 18  1  1
 17 19  1  0
 18 53  1  0
 18 54  1  0
 18 55  1  0
 20 28  1  0
 20 21  1  6
 20 22  1  0
 21 56  1  0
 22 30  1  0
 22 23  1  1
 22 24  1  0
 23 57  1  0
 24 25  1  0
 24 58  1  0
 24 59  1  0
 25 26  1  0
 25 60  1  0
 25 61  1  0
 26 27  1  0
 26 28  1  0
 26 62  1  6
 27 63  1  0
 27 64  1  0
 27 65  1  0
 28 29  1  0
 28 32  1  1
 29 30  1  0
 29 66  1  0
 29 67  1  0
 30 31  1  0
 30 68  1  1
 31 69  1  0
 31 70  1  0
 31 71  1  0
 32 33  1  0
 33 34  1  0
 33 72  1  1
 34 35  1  0
 34 36  1  0
 35 73  1  0
 35 74  1  0
 35 75  1  0
 36 76  1  0
 36 77  1  0
 36 78  1  0
M  END
>  <i_m_ct_stereo_status>  (194) 
1

>  <s_m_source_file>  (194) 
/var/tmp/pbs.5076255.sched01/tmpl83nofxy/76c90atywu.sdf

>  <i_m_source_file_index>  (194) 
20

>  <i_lp_mmshare_version>  (194) 
48012

>  <i_f3d_flags>  (194) 
0

>  <s_epik_input>  (194) 
Tz1bQ0hdW0NAQEhdMVtDQEhdKE8yKUMoW0NIM10pKFtDSDNdKVtDQEBIXShPMylbQ0BAXTIoW0NIMl1bQ0hdPUMoW0NIM10pW0NIM10pT1tDQEBdKFtDSDNdKShbQ0BASF00W09IXSlbQ0hdMVtDSF09QzRbQ0BAXShbQ0BAXTM1NikoW09IXSlbQ0BAXShbT0hdKShbQ0BASF0oW0NIMl02KVtDSDNdKVtDSDJdW0NIMl1bQ0BIXTVbQ0gzXQ==

>  <s_epik_cmdline>  (194) 
J2VwaWtfcHl0aG9uJywgJy1waHQnLCAnMi4wJywgJy1waCcsICc3LjAnLCAnLXRuJywgJzgnLCAnLW1hJywgJzIwMCcsICctaW1hZScsICc8aW5maWxlLm1hZT4nLCAnLW9tYWUnLCAnPG91dGZpbGUubWFlPic=

>  <r_lp_tautomer_probability>  (194) 
1

>  <r_epik_Ionization_Penalty>  (194) 
4.32556e-06

>  <r_epik_Ionization_Penalty_Charging>  (194) 
0

>  <r_epik_Ionization_Penalty_Neutral>  (194) 
4.32556e-06

>  <r_epik_State_Penalty>  (194) 
-0

>  <r_epik_Charging_Adjusted_Penalty>  (194) 
0

>  <i_epik_Tot_Q>  (194) 
0

>  <i_epik_Tot_abs_Q>  (194) 
0

>  <s_lp_Force_Field>  (194) 
OPLS3e

>  <r_lp_Energy>  (194) 
88.3108

>  <b_lp_Chiralities_Consistent>  (194) 
1

>  <s_lp_Variant>  (194) 
69:0-1

>  <s_i_glide_gridfile>  (194) 
pfpi4k_grid

>  <i_i_glide_lignum>  (194) 
20

>  <i_i_glide_rotatable_bonds>  (194) 
6

>  <r_i_docking_score>  (194) 
-2.2721

>  <r_i_glide_ligand_efficiency>  (194) 
-0.063114

>  <r_i_glide_ligand_efficiency_sa>  (194) 
-0.208398

>  <r_i_glide_ligand_efficiency_ln>  (194) 
-0.495711

>  <r_i_glide_gscore>  (194) 
-2.2721

>  <r_i_glide_lipo>  (194) 
-0.55018

>  <r_i_glide_hbond>  (194) 
-0.004267

>  <r_i_glide_metal>  (194) 
-0

>  <r_i_glide_rewards>  (194) 
-0.000445023

>  <r_i_glide_evdw>  (194) 
-23.3141

>  <r_i_glide_ecoul>  (194) 
-4.6955

>  <r_i_glide_erotb>  (194) 
0.161764

>  <r_i_glide_esite>  (194) 
-0.00894712

>  <r_i_glide_emodel>  (194) 
-31.228

>  <r_i_glide_energy>  (194) 
-28.0095

>  <r_i_glide_einternal>  (194) 
1.65326

>  <r_i_glide_intrahb_reward>  (194) 
-0

>  <i_i_glide_confnum>  (194) 
5

>  <i_i_glide_posenum>  (194) 
35

>  <r_i_glide_eff_state_penalty>  (194) 
0

>  <ligand_id>  (194) 
69

>  <original_smiles>  (194) 
CC(C)=CCC12OC3C(C=O)C4C=C(C(O)C4(C)O1)C1(O)C4(O)CCC(C)C1(CC4C)OC2C3(C)C

>  <smiles>  (194) 
[H]OC1([H])C2=C([H])C3([H])C([H])(C([H])=O)C4([H])OC(C([H])([H])C([H])=C(C([H])([H])[H])C([H])([H])[H])(OC13C([H])([H])[H])C([H])(OC13C([H])([H])C([H])(C([H])([H])[H])C(O[H])(C([H])([H])C([H])([H])C1([H])C([H])([H])[H])C23O[H])C4(C([H])([H])[H])C([H])([H])[H]

$$$$
69:0:1
     RDKit          3D

 78 83  0  0  1  0  0  0  0  0999 V2000
    1.9921   -3.3257    5.4940 C   0  0  0  0  0  0  0  0  0  0  0  0
    3.1819   -2.6028    4.8828 C   0  0  0  0  0  0  0  0  0  0  0  0
    2.8994   -1.1454    4.5511 C   0  0  0  0  0  0  0  0  0  0  0  0
    4.3844   -3.1583    4.6270 C   0  0  0  0  0  0  0  0  0  0  0  0
    4.8153   -4.6104    4.8004 C   0  0  0  0  0  0  0  0  0  0  0  0
    5.1421   -5.3632    3.4849 C   0  0  1  0  0  0  0  0  0  0  0  0
    6.1988   -4.6979    2.8730 O   0  0  0  0  0  0  0  0  0  0  0  0
    6.0636   -4.8216    1.4768 C   0  0  1  0  0  0  0  0  0  0  0  0
    6.8659   -6.0811    1.0013 C   0  0  1  0  0  0  0  0  0  0  0  0
    8.3625   -5.7234    0.9825 C   0  0  0  0  0  0  0  0  0  0  0  0
    8.8111   -4.9004    0.1857 O   0  0  0  0  0  0  0  0  0  0  0  0
    6.6892   -7.4546    1.7343 C   0  0  2  0  0  0  0  0  0  0  0  0
    5.5096   -8.2800    1.2944 C   0  0  0  0  0  0  0  0  0  0  0  0
    4.8959   -8.8889    2.3339 C   0  0  0  0  0  0  0  0  0  0  0  0
    5.8033   -8.7968    3.5425 C   0  0  1  0  0  0  0  0  0  0  0  0
    6.6720   -9.9056    3.5544 O   0  0  0  0  0  0  0  0  0  0  0  0
    6.5287   -7.4584    3.2871 C   0  0  1  0  0  0  0  0  0  0  0  0
    7.8268   -7.2738    4.0897 C   0  0  0  0  0  0  0  0  0  0  0  0
    5.5115   -6.6461    3.8817 O   0  0  0  0  0  0  0  0  0  0  0  0
    3.3561   -9.0128    2.3378 C   0  0  1  0  0  0  0  0  0  0  0  0
    3.0103   -9.4610    1.0299 O   0  0  0  0  0  0  0  0  0  0  0  0
    2.6181   -9.9017    3.3947 C   0  0  2  0  0  0  0  0  0  0  0  0
    3.2860  -11.1360    3.5616 O   0  0  0  0  0  0  0  0  0  0  0  0
    1.1335  -10.1101    2.9592 C   0  0  0  0  0  0  0  0  0  0  0  0
    0.3666   -8.7939    2.6726 C   0  0  0  0  0  0  0  0  0  0  0  0
    1.2221   -7.6214    2.1136 C   0  0  1  0  0  0  0  0  0  0  0  0
    0.4771   -6.2903    2.2999 C   0  0  0  0  0  0  0  0  0  0  0  0
    2.6836   -7.6371    2.6850 C   0  0  1  0  0  0  0  0  0  0  0  0
    2.6326   -7.6225    4.2476 C   0  0  0  0  0  0  0  0  0  0  0  0
    2.6303   -9.0925    4.7109 C   0  0  1  0  0  0  0  0  0  0  0  0
    1.5862   -9.4108    5.8024 C   0  0  0  0  0  0  0  0  0  0  0  0
    3.5234   -6.6714    2.0167 O   0  0  0  0  0  0  0  0  0  0  0  0
    3.9324   -5.3814    2.4723 C   0  0  2  0  0  0  0  0  0  0  0  0
    4.5393   -4.6615    1.2480 C   0  0  0  0  0  0  0  0  0  0  0  0
    4.1420   -3.1643    1.2616 C   0  0  0  0  0  0  0  0  0  0  0  0
    4.0643   -5.1686   -0.1306 C   0  0  0  0  0  0  0  0  0  0  0  0
    1.1559   -3.3379    4.7956 H   0  0  0  0  0  0  0  0  0  0  0  0
    1.6750   -2.7928    6.3903 H   0  0  0  0  0  0  0  0  0  0  0  0
    2.1964   -4.3513    5.7896 H   0  0  0  0  0  0  0  0  0  0  0  0
    2.0562   -1.0738    3.8624 H   0  0  0  0  0  0  0  0  0  0  0  0
    3.7500   -0.6603    4.0726 H   0  0  0  0  0  0  0  0  0  0  0  0
    2.6452   -0.5841    5.4493 H   0  0  0  0  0  0  0  0  0  0  0  0
    5.1676   -2.5206    4.2427 H   0  0  0  0  0  0  0  0  0  0  0  0
    5.7037   -4.6109    5.4281 H   0  0  0  0  0  0  0  0  0  0  0  0
    4.0622   -5.1865    5.3307 H   0  0  0  0  0  0  0  0  0  0  0  0
    6.5332   -3.9455    1.0302 H   0  0  0  0  0  0  0  0  0  0  0  0
    6.6242   -6.2397   -0.0462 H   0  0  0  0  0  0  0  0  0  0  0  0
    8.9912   -6.2381    1.7103 H   0  0  0  0  0  0  0  0  0  0  0  0
    7.5470   -8.0832    1.4840 H   0  0  0  0  0  0  0  0  0  0  0  0
    5.0181   -8.0884    0.3557 H   0  0  0  0  0  0  0  0  0  0  0  0
    5.3089   -8.7907    4.5064 H   0  0  0  0  0  0  0  0  0  0  0  0
    6.1345  -10.6878    3.6457 H   0  0  0  0  0  0  0  0  0  0  0  0
    8.6237   -7.9237    3.7356 H   0  0  0  0  0  0  0  0  0  0  0  0
    7.6689   -7.5003    5.1442 H   0  0  0  0  0  0  0  0  0  0  0  0
    8.1867   -6.2495    4.0287 H   0  0  0  0  0  0  0  0  0  0  0  0
    3.3758  -10.3234    0.8948 H   0  0  0  0  0  0  0  0  0  0  0  0
    3.1974  -11.6377    2.7570 H   0  0  0  0  0  0  0  0  0  0  0  0
    1.0890  -10.7241    2.0736 H   0  0  0  0  0  0  0  0  0  0  0  0
    0.5854  -10.6959    3.6973 H   0  0  0  0  0  0  0  0  0  0  0  0
   -0.4342   -9.0115    1.9723 H   0  0  0  0  0  0  0  0  0  0  0  0
   -0.1464   -8.4680    3.5710 H   0  0  0  0  0  0  0  0  0  0  0  0
    1.2844   -7.7484    1.0292 H   0  0  0  0  0  0  0  0  0  0  0  0
    0.2833   -6.0651    3.3491 H   0  0  0  0  0  0  0  0  0  0  0  0
   -0.4892   -6.3487    1.8010 H   0  0  0  0  0  0  0  0  0  0  0  0
    1.0354   -5.4580    1.8716 H   0  0  0  0  0  0  0  0  0  0  0  0
    3.4845   -7.1633    4.7155 H   0  0  0  0  0  0  0  0  0  0  0  0
    1.7733   -7.0706    4.6252 H   0  0  0  0  0  0  0  0  0  0  0  0
    3.5530   -9.3093    5.2323 H   0  0  0  0  0  0  0  0  0  0  0  0
    0.5657   -9.1595    5.5192 H   0  0  0  0  0  0  0  0  0  0  0  0
    1.8089   -8.8495    6.7113 H   0  0  0  0  0  0  0  0  0  0  0  0
    1.6123  -10.4687    6.0671 H   0  0  0  0  0  0  0  0  0  0  0  0
    3.0683   -4.8555    2.8795 H   0  0  0  0  0  0  0  0  0  0  0  0
    3.0594   -3.0343    1.2225 H   0  0  0  0  0  0  0  0  0  0  0  0
    4.5655   -2.6252    0.4152 H   0  0  0  0  0  0  0  0  0  0  0  0
    4.5040   -2.6469    2.1435 H   0  0  0  0  0  0  0  0  0  0  0  0
    2.9846   -5.0668   -0.2345 H   0  0  0  0  0  0  0  0  0  0  0  0
    4.3093   -6.2077   -0.3226 H   0  0  0  0  0  0  0  0  0  0  0  0
    4.5202   -4.5870   -0.9296 H   0  0  0  0  0  0  0  0  0  0  0  0
  1  2  1  0
  1 37  1  0
  1 38  1  0
  1 39  1  0
  2  3  1  0
  2  4  2  3
  3 40  1  0
  3 41  1  0
  3 42  1  0
  4  5  1  0
  4 43  1  0
  6  5  1  1
  5 44  1  0
  5 45  1  0
  6 19  1  0
  6 33  1  0
  6  7  1  0
  7  8  1  0
  8 34  1  0
  8  9  1  0
  8 46  1  6
  9 10  1  0
  9 12  1  0
  9 47  1  6
 10 11  2  0
 10 48  1  0
 12 17  1  0
 12 13  1  0
 12 49  1  1
 13 14  2  0
 13 50  1  0
 14 15  1  0
 14 20  1  0
 15 16  1  0
 15 17  1  0
 15 51  1  1
 16 52  1  0
 17 18  1  1
 17 19  1  0
 18 53  1  0
 18 54  1  0
 18 55  1  0
 20 28  1  0
 20 21  1  6
 20 22  1  0
 21 56  1  0
 22 30  1  0
 22 23  1  1
 22 24  1  0
 23 57  1  0
 24 25  1  0
 24 58  1  0
 24 59  1  0
 25 26  1  0
 25 60  1  0
 25 61  1  0
 26 27  1  0
 26 28  1  0
 26 62  1  6
 27 63  1  0
 27 64  1  0
 27 65  1  0
 28 29  1  0
 28 32  1  6
 29 30  1  0
 29 66  1  0
 29 67  1  0
 30 31  1  0
 30 68  1  1
 31 69  1  0
 31 70  1  0
 31 71  1  0
 32 33  1  0
 33 34  1  0
 33 72  1  1
 34 35  1  0
 34 36  1  0
 35 73  1  0
 35 74  1  0
 35 75  1  0
 36 76  1  0
 36 77  1  0
 36 78  1  0
M  END
>  <i_m_ct_stereo_status>  (195) 
1

>  <s_m_source_file>  (195) 
/var/tmp/pbs.5076255.sched01/tmpl83nofxy/76c90atywu.sdf

>  <i_m_source_file_index>  (195) 
20

>  <i_lp_mmshare_version>  (195) 
48012

>  <i_f3d_flags>  (195) 
0

>  <s_epik_input>  (195) 
Tz1bQ0hdW0NAQEhdMVtDQEhdKE8yKUMoW0NIM10pKFtDSDNdKVtDQEBIXShPMylbQ0BAXTIoW0NIMl1bQ0hdPUMoW0NIM10pW0NIM10pT1tDQEBdKFtDSDNdKShbQ0BASF00W09IXSlbQ0hdMVtDSF09QzRbQ0BAXShbQ0BAXTM1NikoW09IXSlbQ0BAXShbT0hdKShbQ0BASF0oW0NIMl02KVtDSDNdKVtDSDJdW0NIMl1bQ0BIXTVbQ0gzXQ==

>  <s_epik_cmdline>  (195) 
J2VwaWtfcHl0aG9uJywgJy1waHQnLCAnMi4wJywgJy1waCcsICc3LjAnLCAnLXRuJywgJzgnLCAnLW1hJywgJzIwMCcsICctaW1hZScsICc8aW5maWxlLm1hZT4nLCAnLW9tYWUnLCAnPG91dGZpbGUubWFlPic=

>  <r_lp_tautomer_probability>  (195) 
1

>  <r_epik_Ionization_Penalty>  (195) 
4.32556e-06

>  <r_epik_Ionization_Penalty_Charging>  (195) 
0

>  <r_epik_Ionization_Penalty_Neutral>  (195) 
4.32556e-06

>  <r_epik_State_Penalty>  (195) 
-0

>  <r_epik_Charging_Adjusted_Penalty>  (195) 
0

>  <i_epik_Tot_Q>  (195) 
0

>  <i_epik_Tot_abs_Q>  (195) 
0

>  <s_lp_Force_Field>  (195) 
OPLS3e

>  <r_lp_Energy>  (195) 
88.3108

>  <b_lp_Chiralities_Consistent>  (195) 
1

>  <s_lp_Variant>  (195) 
69:0-1

>  <s_i_glide_gridfile>  (195) 
pfpi4k_grid

>  <i_i_glide_lignum>  (195) 
20

>  <i_i_glide_rotatable_bonds>  (195) 
6

>  <r_i_docking_score>  (195) 
-2.19202

>  <r_i_glide_ligand_efficiency>  (195) 
-0.0608893

>  <r_i_glide_ligand_efficiency_sa>  (195) 
-0.201052

>  <r_i_glide_ligand_efficiency_ln>  (195) 
-0.478239

>  <r_i_glide_gscore>  (195) 
-2.19202

>  <r_i_glide_lipo>  (195) 
-0.485908

>  <r_i_glide_hbond>  (195) 
-0.00813761

>  <r_i_glide_metal>  (195) 
-0

>  <r_i_glide_rewards>  (195) 
-0.00025807

>  <r_i_glide_evdw>  (195) 
-23.2234

>  <r_i_glide_ecoul>  (195) 
-4.56775

>  <r_i_glide_erotb>  (195) 
0.161764

>  <r_i_glide_esite>  (195) 
-0.0131462

>  <r_i_glide_emodel>  (195) 
-31.1304

>  <r_i_glide_energy>  (195) 
-27.7911

>  <r_i_glide_einternal>  (195) 
1.4786

>  <r_i_glide_intrahb_reward>  (195) 
-0

>  <i_i_glide_confnum>  (195) 
6

>  <i_i_glide_posenum>  (195) 
23

>  <r_i_glide_eff_state_penalty>  (195) 
0

>  <ligand_id>  (195) 
69

>  <original_smiles>  (195) 
CC(C)=CCC12OC3C(C=O)C4C=C(C(O)C4(C)O1)C1(O)C4(O)CCC(C)C1(CC4C)OC2C3(C)C

>  <smiles>  (195) 
[H]OC1([H])C2=C([H])C3([H])C([H])(C([H])=O)C4([H])OC(C([H])([H])C([H])=C(C([H])([H])[H])C([H])([H])[H])(OC13C([H])([H])[H])C([H])(OC13C([H])([H])C([H])(C([H])([H])[H])C(O[H])(C([H])([H])C([H])([H])C1([H])C([H])([H])[H])C23O[H])C4(C([H])([H])[H])C([H])([H])[H]

$$$$
69:0:2
     RDKit          3D

 78 83  0  0  1  0  0  0  0  0999 V2000
    5.1483   -1.7446    6.0092 C   0  0  0  0  0  0  0  0  0  0  0  0
    5.8325   -3.0592    6.3527 C   0  0  0  0  0  0  0  0  0  0  0  0
    7.0106   -2.9080    7.2993 C   0  0  0  0  0  0  0  0  0  0  0  0
    5.4638   -4.2689    5.8863 C   0  0  0  0  0  0  0  0  0  0  0  0
    4.3373   -4.5951    4.9156 C   0  0  0  0  0  0  0  0  0  0  0  0
    4.7986   -5.4652    3.7295 C   0  0  1  0  0  0  0  0  0  0  0  0
    5.8514   -4.7841    3.1336 O   0  0  0  0  0  0  0  0  0  0  0  0
    5.8193   -5.0164    1.7496 C   0  0  1  0  0  0  0  0  0  0  0  0
    6.7080   -6.2670    1.4264 C   0  0  1  0  0  0  0  0  0  0  0  0
    8.1853   -5.8345    1.4714 C   0  0  0  0  0  0  0  0  0  0  0  0
    8.6512   -5.0710    0.6271 O   0  0  0  0  0  0  0  0  0  0  0  0
    6.5384   -7.5901    2.2501 C   0  0  2  0  0  0  0  0  0  0  0  0
    5.4287   -8.5062    1.7984 C   0  0  0  0  0  0  0  0  0  0  0  0
    4.7739   -9.0641    2.8328 C   0  0  0  0  0  0  0  0  0  0  0  0
    5.5847   -8.8434    4.0923 C   0  0  1  0  0  0  0  0  0  0  0  0
    6.5031   -9.9067    4.2543 O   0  0  0  0  0  0  0  0  0  0  0  0
    6.2731   -7.4928    3.7871 C   0  0  1  0  0  0  0  0  0  0  0  0
    7.5030   -7.1864    4.6535 C   0  0  0  0  0  0  0  0  0  0  0  0
    5.1915   -6.6851    4.2627 O   0  0  0  0  0  0  0  0  0  0  0  0
    3.2385   -9.2827    2.7529 C   0  0  1  0  0  0  0  0  0  0  0  0
    2.9871   -9.8464    1.4671 O   0  0  0  0  0  0  0  0  0  0  0  0
    2.4628  -10.1128    3.8315 C   0  0  2  0  0  0  0  0  0  0  0  0
    3.1430  -11.3032    4.1726 O   0  0  0  0  0  0  0  0  0  0  0  0
    1.0340  -10.4337    3.3037 C   0  0  0  0  0  0  0  0  0  0  0  0
    0.2338   -9.1796    2.8624 C   0  0  0  0  0  0  0  0  0  0  0  0
    1.0690   -8.0000    2.2842 C   0  0  1  0  0  0  0  0  0  0  0  0
    0.2461   -6.6938    2.3206 C   0  0  0  0  0  0  0  0  0  0  0  0
    2.4889   -7.9098    2.9499 C   0  0  1  0  0  0  0  0  0  0  0  0
    2.3310   -7.7713    4.4994 C   0  0  0  0  0  0  0  0  0  0  0  0
    2.3548   -9.1977    5.0760 C   0  0  1  0  0  0  0  0  0  0  0  0
    1.2530   -9.4827    6.1145 C   0  0  0  0  0  0  0  0  0  0  0  0
    3.3249   -6.9518    2.2695 O   0  0  0  0  0  0  0  0  0  0  0  0
    3.6484   -5.6181    2.6616 C   0  0  2  0  0  0  0  0  0  0  0  0
    4.3041   -4.9520    1.4337 C   0  0  0  0  0  0  0  0  0  0  0  0
    3.8413   -3.4741    1.3713 C   0  0  0  0  0  0  0  0  0  0  0  0
    3.9410   -5.5644    0.0658 C   0  0  0  0  0  0  0  0  0  0  0  0
    5.8397   -1.0948    5.4750 H   0  0  0  0  0  0  0  0  0  0  0  0
    4.8514   -1.2372    6.9276 H   0  0  0  0  0  0  0  0  0  0  0  0
    4.2544   -1.8517    5.3991 H   0  0  0  0  0  0  0  0  0  0  0  0
    7.7658   -2.2569    6.8610 H   0  0  0  0  0  0  0  0  0  0  0  0
    7.4810   -3.8666    7.5212 H   0  0  0  0  0  0  0  0  0  0  0  0
    6.6882   -2.4618    8.2399 H   0  0  0  0  0  0  0  0  0  0  0  0
    6.0146   -5.1358    6.2249 H   0  0  0  0  0  0  0  0  0  0  0  0
    3.5577   -5.1193    5.4683 H   0  0  0  0  0  0  0  0  0  0  0  0
    3.8793   -3.7028    4.5025 H   0  0  0  0  0  0  0  0  0  0  0  0
    6.2735   -4.1527    1.2635 H   0  0  0  0  0  0  0  0  0  0  0  0
    6.5437   -6.5104    0.3809 H   0  0  0  0  0  0  0  0  0  0  0  0
    8.7818   -6.2446    2.2878 H   0  0  0  0  0  0  0  0  0  0  0  0
    7.4397   -8.1906    2.1019 H   0  0  0  0  0  0  0  0  0  0  0  0
    5.0211   -8.4138    0.8053 H   0  0  0  0  0  0  0  0  0  0  0  0
    5.0306   -8.7880    5.0143 H   0  0  0  0  0  0  0  0  0  0  0  0
    5.9958  -10.6975    4.3792 H   0  0  0  0  0  0  0  0  0  0  0  0
    8.3517   -7.8194    4.4027 H   0  0  0  0  0  0  0  0  0  0  0  0
    7.2816   -7.3429    5.7093 H   0  0  0  0  0  0  0  0  0  0  0  0
    7.8175   -6.1503    4.5387 H   0  0  0  0  0  0  0  0  0  0  0  0
    3.4098  -10.7029    1.4009 H   0  0  0  0  0  0  0  0  0  0  0  0
    2.5823  -11.8035    4.7510 H   0  0  0  0  0  0  0  0  0  0  0  0
    1.0993  -11.1360    2.4746 H   0  0  0  0  0  0  0  0  0  0  0  0
    0.4533  -10.9810    4.0439 H   0  0  0  0  0  0  0  0  0  0  0  0
   -0.5082   -9.4803    2.1246 H   0  0  0  0  0  0  0  0  0  0  0  0
   -0.3573   -8.8184    3.6992 H   0  0  0  0  0  0  0  0  0  0  0  0
    1.2137   -8.1941    1.2216 H   0  0  0  0  0  0  0  0  0  0  0  0
   -0.0257   -6.4015    3.3340 H   0  0  0  0  0  0  0  0  0  0  0  0
   -0.6852   -6.8350    1.7702 H   0  0  0  0  0  0  0  0  0  0  0  0
    0.7840   -5.8671    1.8580 H   0  0  0  0  0  0  0  0  0  0  0  0
    3.1266   -7.2298    4.9831 H   0  0  0  0  0  0  0  0  0  0  0  0
    1.4233   -7.2394    4.7759 H   0  0  0  0  0  0  0  0  0  0  0  0
    3.2504   -9.3317    5.6703 H   0  0  0  0  0  0  0  0  0  0  0  0
    0.2457   -9.3083    5.7426 H   0  0  0  0  0  0  0  0  0  0  0  0
    1.3886   -8.8498    6.9921 H   0  0  0  0  0  0  0  0  0  0  0  0
    1.3076  -10.5156    6.4543 H   0  0  0  0  0  0  0  0  0  0  0  0
    2.7433   -5.0965    2.9775 H   0  0  0  0  0  0  0  0  0  0  0  0
    2.7636   -3.3925    1.2184 H   0  0  0  0  0  0  0  0  0  0  0  0
    4.3226   -2.9373    0.5534 H   0  0  0  0  0  0  0  0  0  0  0  0
    4.0821   -2.9349    2.2882 H   0  0  0  0  0  0  0  0  0  0  0  0
    2.8681   -5.5272   -0.1191 H   0  0  0  0  0  0  0  0  0  0  0  0
    4.2478   -6.6005   -0.0336 H   0  0  0  0  0  0  0  0  0  0  0  0
    4.4280   -5.0204   -0.7425 H   0  0  0  0  0  0  0  0  0  0  0  0
  1  2  1  0
  1 37  1  0
  1 38  1  0
  1 39  1  0
  2  3  1  0
  2  4  2  3
  3 40  1  0
  3 41  1  0
  3 42  1  0
  4  5  1  0
  4 43  1  0
  6  5  1  1
  5 44  1  0
  5 45  1  0
  6 19  1  0
  6 33  1  0
  6  7  1  0
  7  8  1  0
  8 34  1  0
  8  9  1  0
  8 46  1  6
  9 10  1  0
  9 12  1  0
  9 47  1  6
 10 11  2  0
 10 48  1  0
 12 17  1  0
 12 13  1  0
 12 49  1  1
 13 14  2  0
 13 50  1  0
 14 15  1  0
 14 20  1  0
 15 16  1  0
 15 17  1  0
 15 51  1  1
 16 52  1  0
 17 18  1  1
 17 19  1  0
 18 53  1  0
 18 54  1  0
 18 55  1  0
 20 28  1  0
 20 21  1  6
 20 22  1  0
 21 56  1  0
 22 30  1  0
 22 23  1  1
 22 24  1  0
 23 57  1  0
 24 25  1  0
 24 58  1  0
 24 59  1  0
 25 26  1  0
 25 60  1  0
 25 61  1  0
 26 27  1  0
 26 28  1  0
 26 62  1  6
 27 63  1  0
 27 64  1  0
 27 65  1  0
 28 29  1  0
 28 32  1  6
 29 30  1  0
 29 66  1  0
 29 67  1  0
 30 31  1  0
 30 68  1  1
 31 69  1  0
 31 70  1  0
 31 71  1  0
 32 33  1  0
 33 34  1  0
 33 72  1  1
 34 35  1  0
 34 36  1  0
 35 73  1  0
 35 74  1  0
 35 75  1  0
 36 76  1  0
 36 77  1  0
 36 78  1  0
M  END
>  <i_m_ct_stereo_status>  (196) 
1

>  <s_m_source_file>  (196) 
/var/tmp/pbs.5076255.sched01/tmpl83nofxy/76c90atywu.sdf

>  <i_m_source_file_index>  (196) 
20

>  <i_lp_mmshare_version>  (196) 
48012

>  <i_f3d_flags>  (196) 
0

>  <s_epik_input>  (196) 
Tz1bQ0hdW0NAQEhdMVtDQEhdKE8yKUMoW0NIM10pKFtDSDNdKVtDQEBIXShPMylbQ0BAXTIoW0NIMl1bQ0hdPUMoW0NIM10pW0NIM10pT1tDQEBdKFtDSDNdKShbQ0BASF00W09IXSlbQ0hdMVtDSF09QzRbQ0BAXShbQ0BAXTM1NikoW09IXSlbQ0BAXShbT0hdKShbQ0BASF0oW0NIMl02KVtDSDNdKVtDSDJdW0NIMl1bQ0BIXTVbQ0gzXQ==

>  <s_epik_cmdline>  (196) 
J2VwaWtfcHl0aG9uJywgJy1waHQnLCAnMi4wJywgJy1waCcsICc3LjAnLCAnLXRuJywgJzgnLCAnLW1hJywgJzIwMCcsICctaW1hZScsICc8aW5maWxlLm1hZT4nLCAnLW9tYWUnLCAnPG91dGZpbGUubWFlPic=

>  <r_lp_tautomer_probability>  (196) 
1

>  <r_epik_Ionization_Penalty>  (196) 
4.32556e-06

>  <r_epik_Ionization_Penalty_Charging>  (196) 
0

>  <r_epik_Ionization_Penalty_Neutral>  (196) 
4.32556e-06

>  <r_epik_State_Penalty>  (196) 
-0

>  <r_epik_Charging_Adjusted_Penalty>  (196) 
0

>  <i_epik_Tot_Q>  (196) 
0

>  <i_epik_Tot_abs_Q>  (196) 
0

>  <s_lp_Force_Field>  (196) 
OPLS3e

>  <r_lp_Energy>  (196) 
88.3108

>  <b_lp_Chiralities_Consistent>  (196) 
1

>  <s_lp_Variant>  (196) 
69:0-1

>  <s_i_glide_gridfile>  (196) 
pfpi4k_grid

>  <i_i_glide_lignum>  (196) 
20

>  <i_i_glide_rotatable_bonds>  (196) 
6

>  <r_i_docking_score>  (196) 
-2.16111

>  <r_i_glide_ligand_efficiency>  (196) 
-0.0600307

>  <r_i_glide_ligand_efficiency_sa>  (196) 
-0.198217

>  <r_i_glide_ligand_efficiency_ln>  (196) 
-0.471495

>  <r_i_glide_gscore>  (196) 
-2.16111

>  <r_i_glide_lipo>  (196) 
-0.471414

>  <r_i_glide_hbond>  (196) 
0

>  <r_i_glide_metal>  (196) 
-0

>  <r_i_glide_rewards>  (196) 
0

>  <r_i_glide_evdw>  (196) 
-23.7042

>  <r_i_glide_ecoul>  (196) 
-4.39441

>  <r_i_glide_erotb>  (196) 
0.161764

>  <r_i_glide_esite>  (196) 
-0.00708665

>  <r_i_glide_emodel>  (196) 
-31.7205

>  <r_i_glide_energy>  (196) 
-28.0986

>  <r_i_glide_einternal>  (196) 
1.08489

>  <r_i_glide_intrahb_reward>  (196) 
-0

>  <i_i_glide_confnum>  (196) 
6

>  <i_i_glide_posenum>  (196) 
11

>  <r_i_glide_eff_state_penalty>  (196) 
0

>  <ligand_id>  (196) 
69

>  <original_smiles>  (196) 
CC(C)=CCC12OC3C(C=O)C4C=C(C(O)C4(C)O1)C1(O)C4(O)CCC(C)C1(CC4C)OC2C3(C)C

>  <smiles>  (196) 
[H]OC1([H])C2=C([H])C3([H])C([H])(C([H])=O)C4([H])OC(C([H])([H])C([H])=C(C([H])([H])[H])C([H])([H])[H])(OC13C([H])([H])[H])C([H])(OC13C([H])([H])C([H])(C([H])([H])[H])C(O[H])(C([H])([H])C([H])([H])C1([H])C([H])([H])[H])C23O[H])C4(C([H])([H])[H])C([H])([H])[H]

$$$$
70:0:0
     RDKit          3D

 46 50  0  0  1  0  0  0  0  0999 V2000
    3.9438   -1.4156   -3.7391 C   0  0  0  0  0  0  0  0  0  0  0  0
    3.7630   -2.4676   -2.6488 C   0  0  0  0  0  0  0  0  0  0  0  0
    2.3482   -3.0326   -2.6908 C   0  0  0  0  0  0  0  0  0  0  0  0
    4.6958   -3.5557   -2.8807 O   0  0  0  0  0  0  0  0  0  0  0  0
    5.2735   -3.3769   -1.5652 C   0  0  2  0  0  0  0  0  0  0  0  0
    5.0500   -4.5765   -0.6303 C   0  0  0  0  0  0  0  0  0  0  0  0
    5.0114   -4.2034    0.8893 C   0  0  1  0  0  0  0  0  0  0  0  0
    4.6123   -2.7070    1.1352 C   0  0  1  0  0  0  0  0  0  0  0  0
    3.6302   -2.2306    0.0301 C   0  0  1  0  0  0  0  0  0  0  0  0
    3.0139   -0.9894    0.2879 O   0  0  0  0  0  0  0  0  0  0  0  0
    4.3995   -2.1690   -1.2924 C   0  0  2  0  0  0  0  0  0  0  0  0
    4.1905   -2.3983    2.5684 C   0  0  1  0  0  0  0  0  0  0  0  0
    4.6237   -1.0334    3.0691 C   0  0  0  0  0  0  0  0  0  0  0  0
    2.8686   -2.8384    2.9398 O   0  0  0  0  0  0  0  0  0  0  0  0
    3.9726   -3.5018    3.5788 C   0  0  1  0  0  0  0  0  0  0  0  0
    4.1788   -4.9674    3.2470 C   0  0  1  0  0  0  0  0  0  0  0  0
    5.3769   -5.3488    3.9065 O   0  0  0  0  0  0  0  0  0  0  0  0
    2.9822   -5.8105    3.7230 C   0  0  0  0  0  0  0  0  0  0  0  0
    2.2579   -6.1985    2.5560 O   0  0  0  0  0  0  0  0  0  0  0  0
    2.7650   -5.5167    1.4160 C   0  0  0  0  0  0  0  0  0  0  0  0
    4.2456   -5.2676    1.7414 C   0  0  1  0  0  0  0  0  0  0  0  0
    4.8959   -6.5094    1.5031 O   0  0  0  0  0  0  0  0  0  0  0  0
    3.3054   -0.5483   -3.5550 H   0  0  0  0  0  0  0  0  0  0  0  0
    3.6817   -1.8175   -4.7146 H   0  0  0  0  0  0  0  0  0  0  0  0
    4.9751   -1.0643   -3.7873 H   0  0  0  0  0  0  0  0  0  0  0  0
    1.6411   -2.2717   -2.3690 H   0  0  0  0  0  0  0  0  0  0  0  0
    2.2326   -3.8871   -2.0244 H   0  0  0  0  0  0  0  0  0  0  0  0
    2.0734   -3.3493   -3.6969 H   0  0  0  0  0  0  0  0  0  0  0  0
    6.3228   -3.0900   -1.6439 H   0  0  0  0  0  0  0  0  0  0  0  0
    4.1101   -5.0508   -0.9114 H   0  0  0  0  0  0  0  0  0  0  0  0
    5.8075   -5.3398   -0.7875 H   0  0  0  0  0  0  0  0  0  0  0  0
    6.0439   -4.2581    1.2384 H   0  0  0  0  0  0  0  0  0  0  0  0
    5.5267   -2.1236    0.9884 H   0  0  0  0  0  0  0  0  0  0  0  0
    2.8163   -2.9537   -0.0290 H   0  0  0  0  0  0  0  0  0  0  0  0
    2.1343   -1.0032   -0.1307 H   0  0  0  0  0  0  0  0  0  0  0  0
    5.0358   -1.2841   -1.3584 H   0  0  0  0  0  0  0  0  0  0  0  0
    5.7127   -0.9732    3.0893 H   0  0  0  0  0  0  0  0  0  0  0  0
    4.2578   -0.8575    4.0806 H   0  0  0  0  0  0  0  0  0  0  0  0
    4.2458   -0.2410    2.4244 H   0  0  0  0  0  0  0  0  0  0  0  0
    4.0575   -3.2488    4.6320 H   0  0  0  0  0  0  0  0  0  0  0  0
    5.2400   -5.2680    4.8345 H   0  0  0  0  0  0  0  0  0  0  0  0
    3.3167   -6.7157    4.2333 H   0  0  0  0  0  0  0  0  0  0  0  0
    2.3362   -5.2715    4.4170 H   0  0  0  0  0  0  0  0  0  0  0  0
    2.5892   -6.0783    0.4989 H   0  0  0  0  0  0  0  0  0  0  0  0
    2.2132   -4.5820    1.3457 H   0  0  0  0  0  0  0  0  0  0  0  0
    4.8485   -6.6963    0.5804 H   0  0  0  0  0  0  0  0  0  0  0  0
  1  2  1  0
  1 23  1  0
  1 24  1  0
  1 25  1  0
  2 11  1  0
  2  3  1  0
  2  4  1  0
  3 26  1  0
  3 27  1  0
  3 28  1  0
  4  5  1  0
  5 11  1  0
  5  6  1  0
  5 29  1  6
  6  7  1  0
  6 30  1  0
  6 31  1  0
  7 21  1  0
  7  8  1  0
  7 32  1  1
  8  9  1  0
  8 12  1  0
  8 33  1  6
  9 10  1  0
  9 11  1  0
  9 34  1  6
 10 35  1  0
 11 36  1  6
 12 15  1  0
 12 13  1  1
 12 14  1  0
 13 37  1  0
 13 38  1  0
 13 39  1  0
 14 15  1  0
 15 16  1  0
 15 40  1  1
 16 21  1  0
 16 17  1  1
 16 18  1  0
 17 41  1  0
 18 19  1  0
 18 42  1  0
 18 43  1  0
 19 20  1  0
 20 21  1  0
 20 44  1  0
 20 45  1  0
 21 22  1  1
 22 46  1  0
M  END
>  <i_m_ct_stereo_status>  (197) 
1

>  <s_m_source_file>  (197) 
/var/tmp/pbs.5076255.sched01/tmpl83nofxy/76c90atywu.sdf

>  <i_m_source_file_index>  (197) 
21

>  <i_lp_mmshare_version>  (197) 
48012

>  <i_f3d_flags>  (197) 
0

>  <s_epik_input>  (197) 
W0NIM11DKE8xKShbQ0gzXSlbQ0BASF0oW0NAQEhdMltPSF0pW0NASF0xW0NIMl1bQ0BASF0oW0NAQEhdMltDQEBdMzRbQ0gzXSlbQ0BAXTUoW09IXSlbQ0BdKFtDQEBIXTRPMykoW09IXSlbQ0gyXU9bQ0gyXTU=

>  <s_epik_cmdline>  (197) 
J2VwaWtfcHl0aG9uJywgJy1waHQnLCAnMi4wJywgJy1waCcsICc3LjAnLCAnLXRuJywgJzgnLCAnLW1hJywgJzIwMCcsICctaW1hZScsICc8aW5maWxlLm1hZT4nLCAnLW9tYWUnLCAnPG91dGZpbGUubWFlPic=

>  <r_lp_tautomer_probability>  (197) 
1

>  <r_epik_Ionization_Penalty>  (197) 
2.45966e-07

>  <r_epik_Ionization_Penalty_Charging>  (197) 
0

>  <r_epik_Ionization_Penalty_Neutral>  (197) 
2.45966e-07

>  <r_epik_State_Penalty>  (197) 
-0

>  <r_epik_Charging_Adjusted_Penalty>  (197) 
0

>  <i_epik_Tot_Q>  (197) 
0

>  <i_epik_Tot_abs_Q>  (197) 
0

>  <s_lp_Force_Field>  (197) 
OPLS3e

>  <r_lp_Energy>  (197) 
20.9733

>  <b_lp_Chiralities_Consistent>  (197) 
1

>  <s_lp_Variant>  (197) 
70:0-1

>  <s_i_glide_gridfile>  (197) 
pfpi4k_grid

>  <i_i_glide_lignum>  (197) 
21

>  <i_i_glide_rotatable_bonds>  (197) 
3

>  <r_i_docking_score>  (197) 
-3.37624

>  <r_i_glide_ligand_efficiency>  (197) 
-0.153466

>  <r_i_glide_ligand_efficiency_sa>  (197) 
-0.430017

>  <r_i_glide_ligand_efficiency_ln>  (197) 
-0.825277

>  <r_i_glide_gscore>  (197) 
-3.37624

>  <r_i_glide_lipo>  (197) 
-0.542614

>  <r_i_glide_hbond>  (197) 
0

>  <r_i_glide_metal>  (197) 
-0

>  <r_i_glide_rewards>  (197) 
-1.27938

>  <r_i_glide_evdw>  (197) 
-15.5147

>  <r_i_glide_ecoul>  (197) 
-5.19012

>  <r_i_glide_erotb>  (197) 
0

>  <r_i_glide_esite>  (197) 
0

>  <r_i_glide_emodel>  (197) 
-24.692

>  <r_i_glide_energy>  (197) 
-20.7048

>  <r_i_glide_einternal>  (197) 
1.03096

>  <r_i_glide_intrahb_reward>  (197) 
-0

>  <i_i_glide_confnum>  (197) 
2

>  <i_i_glide_posenum>  (197) 
24

>  <r_i_glide_eff_state_penalty>  (197) 
0

>  <ligand_id>  (197) 
70

>  <original_smiles>  (197) 
CC1(C)OC2CC3C(C(O)C21)C1(C)OC1C1(O)COCC31O

>  <smiles>  (197) 
[H]OC1([H])C2([H])C([H])(OC2(C([H])([H])[H])C([H])([H])[H])C([H])([H])C2([H])C1([H])C1(C([H])([H])[H])OC1([H])C1(O[H])C([H])([H])OC([H])([H])C21O[H]

$$$$
70:0:1
     RDKit          3D

 46 50  0  0  1  0  0  0  0  0999 V2000
    3.4278   -0.7717    5.4433 C   0  0  0  0  0  0  0  0  0  0  0  0
    3.4575   -0.8317    3.9168 C   0  0  0  0  0  0  0  0  0  0  0  0
    2.0724   -0.5507    3.3433 C   0  0  0  0  0  0  0  0  0  0  0  0
    4.3545    0.1950    3.4182 O   0  0  0  0  0  0  0  0  0  0  0  0
    5.1577   -0.7963    2.7335 C   0  0  2  0  0  0  0  0  0  0  0  0
    5.1363   -0.6233    1.2145 C   0  0  0  0  0  0  0  0  0  0  0  0
    5.3472   -1.9726    0.4347 C   0  0  1  0  0  0  0  0  0  0  0  0
    4.9601   -3.2323    1.2724 C   0  0  1  0  0  0  0  0  0  0  0  0
    3.7900   -2.8955    2.2269 C   0  0  1  0  0  0  0  0  0  0  0  0
    3.2429   -4.0249    2.8657 O   0  0  0  0  0  0  0  0  0  0  0  0
    4.3155   -1.9255    3.2857 C   0  0  2  0  0  0  0  0  0  0  0  0
    4.7785   -4.5040    0.4386 C   0  0  1  0  0  0  0  0  0  0  0  0
    5.2442   -5.7786    1.1281 C   0  0  0  0  0  0  0  0  0  0  0  0
    3.5419   -4.5876   -0.2871 O   0  0  0  0  0  0  0  0  0  0  0  0
    4.7399   -4.4678   -1.0628 C   0  0  1  0  0  0  0  0  0  0  0  0
    4.9456   -3.1866   -1.8572 C   0  0  1  0  0  0  0  0  0  0  0  0
    6.2506   -3.2418   -2.3946 O   0  0  0  0  0  0  0  0  0  0  0  0
    3.8960   -3.0367   -2.9697 C   0  0  0  0  0  0  0  0  0  0  0  0
    3.0230   -1.9905   -2.5587 O   0  0  0  0  0  0  0  0  0  0  0  0
    3.2819   -1.6752   -1.1958 C   0  0  0  0  0  0  0  0  0  0  0  0
    4.7771   -1.9149   -1.0213 C   0  0  1  0  0  0  0  0  0  0  0  0
    5.4150   -0.8082   -1.6402 O   0  0  0  0  0  0  0  0  0  0  0  0
    2.8003   -1.5705    5.8498 H   0  0  0  0  0  0  0  0  0  0  0  0
    3.0246    0.1764    5.7958 H   0  0  0  0  0  0  0  0  0  0  0  0
    4.4217   -0.8871    5.8753 H   0  0  0  0  0  0  0  0  0  0  0  0
    1.3917   -1.3822    3.5553 H   0  0  0  0  0  0  0  0  0  0  0  0
    2.0997   -0.4106    2.2618 H   0  0  0  0  0  0  0  0  0  0  0  0
    1.6437    0.3539    3.7759 H   0  0  0  0  0  0  0  0  0  0  0  0
    6.1694   -0.8358    3.1440 H   0  0  0  0  0  0  0  0  0  0  0  0
    4.1762   -0.1935    0.9375 H   0  0  0  0  0  0  0  0  0  0  0  0
    5.8717    0.1171    0.9051 H   0  0  0  0  0  0  0  0  0  0  0  0
    6.4257   -2.0708    0.3008 H   0  0  0  0  0  0  0  0  0  0  0  0
    5.8151   -3.4461    1.9162 H   0  0  0  0  0  0  0  0  0  0  0  0
    2.9882   -2.4410    1.6494 H   0  0  0  0  0  0  0  0  0  0  0  0
    2.8924   -4.5898    2.1933 H   0  0  0  0  0  0  0  0  0  0  0  0
    4.9023   -2.4411    4.0515 H   0  0  0  0  0  0  0  0  0  0  0  0
    6.3164   -5.7313    1.3084 H   0  0  0  0  0  0  0  0  0  0  0  0
    5.0424   -6.6462    0.4992 H   0  0  0  0  0  0  0  0  0  0  0  0
    4.7376   -5.9227    2.0799 H   0  0  0  0  0  0  0  0  0  0  0  0
    5.0098   -5.3802   -1.5925 H   0  0  0  0  0  0  0  0  0  0  0  0
    6.8552   -3.4245   -1.6933 H   0  0  0  0  0  0  0  0  0  0  0  0
    4.3544   -2.7441   -3.9152 H   0  0  0  0  0  0  0  0  0  0  0  0
    3.3284   -3.9422   -3.1555 H   0  0  0  0  0  0  0  0  0  0  0  0
    3.0077   -0.6613   -0.9663 H   0  0  0  0  0  0  0  0  0  0  0  0
    2.6738   -2.3294   -0.5729 H   0  0  0  0  0  0  0  0  0  0  0  0
    5.0101   -0.0141   -1.3103 H   0  0  0  0  0  0  0  0  0  0  0  0
  1  2  1  0
  1 23  1  0
  1 24  1  0
  1 25  1  0
  2 11  1  0
  2  3  1  0
  2  4  1  0
  3 26  1  0
  3 27  1  0
  3 28  1  0
  4  5  1  0
  5 11  1  0
  5  6  1  0
  5 29  1  1
  6  7  1  0
  6 30  1  0
  6 31  1  0
  7 21  1  0
  7  8  1  0
  7 32  1  6
  8  9  1  0
  8 12  1  0
  8 33  1  1
  9 10  1  0
  9 11  1  0
  9 34  1  6
 10 35  1  0
 11 36  1  1
 12 15  1  0
 12 13  1  6
 12 14  1  0
 13 37  1  0
 13 38  1  0
 13 39  1  0
 14 15  1  0
 15 16  1  0
 15 40  1  6
 16 21  1  0
 16 17  1  6
 16 18  1  0
 17 41  1  0
 18 19  1  0
 18 42  1  0
 18 43  1  0
 19 20  1  0
 20 21  1  0
 20 44  1  0
 20 45  1  0
 21 22  1  6
 22 46  1  0
M  END
>  <i_m_ct_stereo_status>  (198) 
1

>  <s_m_source_file>  (198) 
/var/tmp/pbs.5076255.sched01/tmpl83nofxy/76c90atywu.sdf

>  <i_m_source_file_index>  (198) 
21

>  <i_lp_mmshare_version>  (198) 
48012

>  <i_f3d_flags>  (198) 
0

>  <s_epik_input>  (198) 
W0NIM11DKE8xKShbQ0gzXSlbQ0BASF0oW0NAQEhdMltPSF0pW0NASF0xW0NIMl1bQ0BASF0oW0NAQEhdMltDQEBdMzRbQ0gzXSlbQ0BAXTUoW09IXSlbQ0BdKFtDQEBIXTRPMykoW09IXSlbQ0gyXU9bQ0gyXTU=

>  <s_epik_cmdline>  (198) 
J2VwaWtfcHl0aG9uJywgJy1waHQnLCAnMi4wJywgJy1waCcsICc3LjAnLCAnLXRuJywgJzgnLCAnLW1hJywgJzIwMCcsICctaW1hZScsICc8aW5maWxlLm1hZT4nLCAnLW9tYWUnLCAnPG91dGZpbGUubWFlPic=

>  <r_lp_tautomer_probability>  (198) 
1

>  <r_epik_Ionization_Penalty>  (198) 
2.45966e-07

>  <r_epik_Ionization_Penalty_Charging>  (198) 
0

>  <r_epik_Ionization_Penalty_Neutral>  (198) 
2.45966e-07

>  <r_epik_State_Penalty>  (198) 
-0

>  <r_epik_Charging_Adjusted_Penalty>  (198) 
0

>  <i_epik_Tot_Q>  (198) 
0

>  <i_epik_Tot_abs_Q>  (198) 
0

>  <s_lp_Force_Field>  (198) 
OPLS3e

>  <r_lp_Energy>  (198) 
20.9733

>  <b_lp_Chiralities_Consistent>  (198) 
1

>  <s_lp_Variant>  (198) 
70:0-1

>  <s_i_glide_gridfile>  (198) 
pfpi4k_grid

>  <i_i_glide_lignum>  (198) 
21

>  <i_i_glide_rotatable_bonds>  (198) 
3

>  <r_i_docking_score>  (198) 
-3.1927

>  <r_i_glide_ligand_efficiency>  (198) 
-0.145123

>  <r_i_glide_ligand_efficiency_sa>  (198) 
-0.406639

>  <r_i_glide_ligand_efficiency_ln>  (198) 
-0.780412

>  <r_i_glide_gscore>  (198) 
-3.1927

>  <r_i_glide_lipo>  (198) 
-0.608115

>  <r_i_glide_hbond>  (198) 
0

>  <r_i_glide_metal>  (198) 
-0

>  <r_i_glide_rewards>  (198) 
-1.27938

>  <r_i_glide_evdw>  (198) 
-17.1068

>  <r_i_glide_ecoul>  (198) 
-2.99909

>  <r_i_glide_erotb>  (198) 
0

>  <r_i_glide_esite>  (198) 
0

>  <r_i_glide_emodel>  (198) 
-24.156

>  <r_i_glide_energy>  (198) 
-20.1059

>  <r_i_glide_einternal>  (198) 
0.530584

>  <r_i_glide_intrahb_reward>  (198) 
-0

>  <i_i_glide_confnum>  (198) 
2

>  <i_i_glide_posenum>  (198) 
2

>  <r_i_glide_eff_state_penalty>  (198) 
0

>  <ligand_id>  (198) 
70

>  <original_smiles>  (198) 
CC1(C)OC2CC3C(C(O)C21)C1(C)OC1C1(O)COCC31O

>  <smiles>  (198) 
[H]OC1([H])C2([H])C([H])(OC2(C([H])([H])[H])C([H])([H])[H])C([H])([H])C2([H])C1([H])C1(C([H])([H])[H])OC1([H])C1(O[H])C([H])([H])OC([H])([H])C21O[H]

$$$$
70:0:2
     RDKit          3D

 46 50  0  0  1  0  0  0  0  0999 V2000
    1.7182   -0.1473    4.7198 C   0  0  0  0  0  0  0  0  0  0  0  0
    2.1395   -0.3551    3.2641 C   0  0  0  0  0  0  0  0  0  0  0  0
    0.9252   -0.2809    2.3451 C   0  0  0  0  0  0  0  0  0  0  0  0
    3.0502    0.7080    2.8688 O   0  0  0  0  0  0  0  0  0  0  0  0
    4.0731   -0.2601    2.5302 C   0  0  2  0  0  0  0  0  0  0  0  0
    4.4215   -0.2468    1.0416 C   0  0  0  0  0  0  0  0  0  0  0  0
    4.9237   -1.6303    0.4998 C   0  0  1  0  0  0  0  0  0  0  0  0
    4.4358   -2.8383    1.3719 C   0  0  1  0  0  0  0  0  0  0  0  0
    3.0373   -2.5340    1.9733 C   0  0  1  0  0  0  0  0  0  0  0  0
    2.4110   -3.6330    2.5997 O   0  0  0  0  0  0  0  0  0  0  0  0
    3.2108   -1.4106    2.9984 C   0  0  2  0  0  0  0  0  0  0  0  0
    4.5795   -4.1988    0.6860 C   0  0  1  0  0  0  0  0  0  0  0  0
    4.9594   -5.3360    1.6235 C   0  0  0  0  0  0  0  0  0  0  0  0
    3.5939   -4.4893   -0.3100 O   0  0  0  0  0  0  0  0  0  0  0  0
    4.9334   -4.3120   -0.7741 C   0  0  1  0  0  0  0  0  0  0  0  0
    5.2165   -3.0964   -1.6506 C   0  0  1  0  0  0  0  0  0  0  0  0
    6.6161   -3.0481   -1.8764 O   0  0  0  0  0  0  0  0  0  0  0  0
    4.4555   -3.1985   -2.9825 C   0  0  0  0  0  0  0  0  0  0  0  0
    3.4172   -2.2269   -2.9338 O   0  0  0  0  0  0  0  0  0  0  0  0
    3.3040   -1.7074   -1.6125 C   0  0  0  0  0  0  0  0  0  0  0  0
    4.7298   -1.7668   -1.0504 C   0  0  1  0  0  0  0  0  0  0  0  0
    5.4113   -0.6580   -1.6343 O   0  0  0  0  0  0  0  0  0  0  0  0
    1.0770   -0.9644    5.0547 H   0  0  0  0  0  0  0  0  0  0  0  0
    1.1635    0.7812    4.8451 H   0  0  0  0  0  0  0  0  0  0  0  0
    2.5770   -0.1102    5.3893 H   0  0  0  0  0  0  0  0  0  0  0  0
    0.2921   -1.1561    2.4946 H   0  0  0  0  0  0  0  0  0  0  0  0
    1.2146   -0.2480    1.2929 H   0  0  0  0  0  0  0  0  0  0  0  0
    0.3255    0.6084    2.5415 H   0  0  0  0  0  0  0  0  0  0  0  0
    4.9454   -0.1437    3.1740 H   0  0  0  0  0  0  0  0  0  0  0  0
    3.5277    0.0461    0.4910 H   0  0  0  0  0  0  0  0  0  0  0  0
    5.1555    0.5297    0.8326 H   0  0  0  0  0  0  0  0  0  0  0  0
    6.0059   -1.6311    0.6384 H   0  0  0  0  0  0  0  0  0  0  0  0
    5.1237   -2.8868    2.2198 H   0  0  0  0  0  0  0  0  0  0  0  0
    2.3809   -2.2185    1.1640 H   0  0  0  0  0  0  0  0  0  0  0  0
    2.9707   -3.9535    3.2842 H   0  0  0  0  0  0  0  0  0  0  0  0
    3.6239   -1.7746    3.9395 H   0  0  0  0  0  0  0  0  0  0  0  0
    5.9466   -5.1548    2.0503 H   0  0  0  0  0  0  0  0  0  0  0  0
    4.9962   -6.2814    1.0796 H   0  0  0  0  0  0  0  0  0  0  0  0
    4.2407   -5.4407    2.4338 H   0  0  0  0  0  0  0  0  0  0  0  0
    5.3806   -5.2405   -1.1130 H   0  0  0  0  0  0  0  0  0  0  0  0
    6.8501   -3.7859   -2.4099 H   0  0  0  0  0  0  0  0  0  0  0  0
    5.0973   -2.9476   -3.8267 H   0  0  0  0  0  0  0  0  0  0  0  0
    4.0579   -4.1943   -3.1714 H   0  0  0  0  0  0  0  0  0  0  0  0
    2.8769   -0.7071   -1.6236 H   0  0  0  0  0  0  0  0  0  0  0  0
    2.6303   -2.3637   -1.0593 H   0  0  0  0  0  0  0  0  0  0  0  0
    5.0110    0.1502   -1.3339 H   0  0  0  0  0  0  0  0  0  0  0  0
  1  2  1  0
  1 23  1  0
  1 24  1  0
  1 25  1  0
  2 11  1  0
  2  3  1  0
  2  4  1  0
  3 26  1  0
  3 27  1  0
  3 28  1  0
  4  5  1  0
  5 11  1  0
  5  6  1  0
  5 29  1  1
  6  7  1  0
  6 30  1  0
  6 31  1  0
  7 21  1  0
  7  8  1  0
  7 32  1  6
  8  9  1  0
  8 12  1  0
  8 33  1  1
  9 10  1  0
  9 11  1  0
  9 34  1  6
 10 35  1  0
 11 36  1  1
 12 15  1  0
 12 13  1  1
 12 14  1  0
 13 37  1  0
 13 38  1  0
 13 39  1  0
 14 15  1  0
 15 16  1  0
 15 40  1  1
 16 21  1  0
 16 17  1  6
 16 18  1  0
 17 41  1  0
 18 19  1  0
 18 42  1  0
 18 43  1  0
 19 20  1  0
 20 21  1  0
 20 44  1  0
 20 45  1  0
 21 22  1  6
 22 46  1  0
M  END
>  <i_m_ct_stereo_status>  (199) 
1

>  <s_m_source_file>  (199) 
/var/tmp/pbs.5076255.sched01/tmpl83nofxy/76c90atywu.sdf

>  <i_m_source_file_index>  (199) 
21

>  <i_lp_mmshare_version>  (199) 
48012

>  <i_f3d_flags>  (199) 
0

>  <s_epik_input>  (199) 
W0NIM11DKE8xKShbQ0gzXSlbQ0BASF0oW0NAQEhdMltPSF0pW0NASF0xW0NIMl1bQ0BASF0oW0NAQEhdMltDQEBdMzRbQ0gzXSlbQ0BAXTUoW09IXSlbQ0BdKFtDQEBIXTRPMykoW09IXSlbQ0gyXU9bQ0gyXTU=

>  <s_epik_cmdline>  (199) 
J2VwaWtfcHl0aG9uJywgJy1waHQnLCAnMi4wJywgJy1waCcsICc3LjAnLCAnLXRuJywgJzgnLCAnLW1hJywgJzIwMCcsICctaW1hZScsICc8aW5maWxlLm1hZT4nLCAnLW9tYWUnLCAnPG91dGZpbGUubWFlPic=

>  <r_lp_tautomer_probability>  (199) 
1

>  <r_epik_Ionization_Penalty>  (199) 
2.45966e-07

>  <r_epik_Ionization_Penalty_Charging>  (199) 
0

>  <r_epik_Ionization_Penalty_Neutral>  (199) 
2.45966e-07

>  <r_epik_State_Penalty>  (199) 
-0

>  <r_epik_Charging_Adjusted_Penalty>  (199) 
0

>  <i_epik_Tot_Q>  (199) 
0

>  <i_epik_Tot_abs_Q>  (199) 
0

>  <s_lp_Force_Field>  (199) 
OPLS3e

>  <r_lp_Energy>  (199) 
20.9733

>  <b_lp_Chiralities_Consistent>  (199) 
1

>  <s_lp_Variant>  (199) 
70:0-1

>  <s_i_glide_gridfile>  (199) 
pfpi4k_grid

>  <i_i_glide_lignum>  (199) 
21

>  <i_i_glide_rotatable_bonds>  (199) 
3

>  <r_i_docking_score>  (199) 
-3.15607

>  <r_i_glide_ligand_efficiency>  (199) 
-0.143458

>  <r_i_glide_ligand_efficiency_sa>  (199) 
-0.401974

>  <r_i_glide_ligand_efficiency_ln>  (199) 
-0.771459

>  <r_i_glide_gscore>  (199) 
-3.15607

>  <r_i_glide_lipo>  (199) 
-0.443608

>  <r_i_glide_hbond>  (199) 
0

>  <r_i_glide_metal>  (199) 
-0

>  <r_i_glide_rewards>  (199) 
-1.27938

>  <r_i_glide_evdw>  (199) 
-17.9283

>  <r_i_glide_ecoul>  (199) 
-3.57781

>  <r_i_glide_erotb>  (199) 
0

>  <r_i_glide_esite>  (199) 
0

>  <r_i_glide_emodel>  (199) 
-25.8171

>  <r_i_glide_energy>  (199) 
-21.5061

>  <r_i_glide_einternal>  (199) 
0.176317

>  <r_i_glide_intrahb_reward>  (199) 
-0

>  <i_i_glide_confnum>  (199) 
2

>  <i_i_glide_posenum>  (199) 
5

>  <r_i_glide_eff_state_penalty>  (199) 
0

>  <ligand_id>  (199) 
70

>  <original_smiles>  (199) 
CC1(C)OC2CC3C(C(O)C21)C1(C)OC1C1(O)COCC31O

>  <smiles>  (199) 
[H]OC1([H])C2([H])C([H])(OC2(C([H])([H])[H])C([H])([H])[H])C([H])([H])C2([H])C1([H])C1(C([H])([H])[H])OC1([H])C1(O[H])C([H])([H])OC([H])([H])C21O[H]

$$$$
71:0:0
     RDKit          3D

 47 52  0  0  1  0  0  0  0  0999 V2000
    2.6543    4.5898    2.7159 C   0  0  0  0  0  0  0  0  0  0  0  0
    1.8383    3.4732    3.3420 C   0  0  0  0  0  0  0  0  0  0  0  0
    0.6776    3.9514    4.2558 C   0  0  0  0  0  0  0  0  0  0  0  0
   -0.1329    2.8299    4.9805 C   0  0  2  0  0  0  0  0  0  0  0  0
   -0.9833    1.9771    3.9155 C   0  0  1  0  0  0  0  0  0  0  0  0
   -0.1531    0.9808    3.1539 C   0  0  0  0  0  0  0  0  0  0  0  0
   -0.0693   -0.1196    3.9047 C   0  0  0  0  0  0  0  0  0  0  0  0
   -0.9254    0.0950    5.1539 C   0  0  2  0  0  0  0  0  0  0  0  0
   -1.6104   -1.0604    5.5715 O   0  0  0  0  0  0  0  0  0  0  0  0
   -0.8015   -2.1883    5.8917 C   0  0  0  0  0  0  0  0  0  0  0  0
   -1.8020    1.0179    4.5963 O   0  0  0  0  0  0  0  0  0  0  0  0
   -0.2338    0.8587    6.3852 C   0  0  2  0  0  0  0  0  0  0  0  0
   -1.1839    1.6357    7.3658 C   0  0  0  0  0  0  0  0  0  0  0  0
   -0.6219    2.3355    8.4564 C   0  0  0  0  0  0  0  0  0  0  0  0
   -1.7043    2.6313    9.3144 C   0  0  0  0  0  0  0  0  0  0  0  0
   -2.9482    2.9571    8.7240 C   0  0  0  0  0  0  0  0  0  0  0  0
   -3.0879    2.9267    7.3652 N   0  0  0  0  0  0  0  0  0  0  0  0
   -2.0919    2.4072    6.6125 C   0  0  0  0  0  0  0  0  0  0  0  0
   -1.0174    3.4058    6.1792 C   0  0  1  0  0  0  0  0  0  0  0  0
   -0.2274    3.5320    7.5510 C   0  0  2  0  0  0  0  0  0  0  0  0
    1.1684    3.6567    7.3859 O   0  0  0  0  0  0  0  0  0  0  0  0
    1.7632    2.5582    6.7211 C   0  0  1  0  0  0  0  0  0  0  0  0
    2.4879    1.6117    7.6922 C   0  0  0  0  0  0  0  0  0  0  0  0
    0.7925    1.8491    5.7426 C   0  0  2  0  0  0  0  0  0  0  0  0
    3.4309    4.1586    2.0788 H   0  0  0  0  0  0  0  0  0  0  0  0
    3.1347    5.2068    3.4725 H   0  0  0  0  0  0  0  0  0  0  0  0
    2.0261    5.2154    2.0824 H   0  0  0  0  0  0  0  0  0  0  0  0
    1.4581    2.9024    2.5024 H   0  0  0  0  0  0  0  0  0  0  0  0
    2.5355    2.8244    3.8723 H   0  0  0  0  0  0  0  0  0  0  0  0
    1.1018    4.6324    4.9925 H   0  0  0  0  0  0  0  0  0  0  0  0
   -0.0012    4.5692    3.6637 H   0  0  0  0  0  0  0  0  0  0  0  0
   -1.5992    2.5930    3.2585 H   0  0  0  0  0  0  0  0  0  0  0  0
    0.2752    1.1194    2.1778 H   0  0  0  0  0  0  0  0  0  0  0  0
    0.4629   -1.0102    3.6205 H   0  0  0  0  0  0  0  0  0  0  0  0
   -1.4467   -3.0302    6.1349 H   0  0  0  0  0  0  0  0  0  0  0  0
   -0.1591   -2.0147    6.7560 H   0  0  0  0  0  0  0  0  0  0  0  0
   -0.1697   -2.5209    5.0668 H   0  0  0  0  0  0  0  0  0  0  0  0
    0.3469    0.1408    6.9394 H   0  0  0  0  0  0  0  0  0  0  0  0
   -1.5673    2.7420   10.3786 H   0  0  0  0  0  0  0  0  0  0  0  0
   -3.8004    3.2790    9.3197 H   0  0  0  0  0  0  0  0  0  0  0  0
   -1.4704    4.3564    5.8964 H   0  0  0  0  0  0  0  0  0  0  0  0
   -0.5693    4.4375    8.0531 H   0  0  0  0  0  0  0  0  0  0  0  0
    2.5486    3.0304    6.1389 H   0  0  0  0  0  0  0  0  0  0  0  0
    2.9634    0.7984    7.1427 H   0  0  0  0  0  0  0  0  0  0  0  0
    1.8154    1.1664    8.4233 H   0  0  0  0  0  0  0  0  0  0  0  0
    3.2685    2.1371    8.2414 H   0  0  0  0  0  0  0  0  0  0  0  0
    1.4794    1.3125    5.0944 H   0  0  0  0  0  0  0  0  0  0  0  0
  1  2  1  0
  1 25  1  0
  1 26  1  0
  1 27  1  0
  2  3  1  0
  2 28  1  0
  2 29  1  0
  4  3  1  6
  3 30  1  0
  3 31  1  0
  4 19  1  0
  4 24  1  0
  4  5  1  0
  5 11  1  0
  5  6  1  0
  5 32  1  6
  6  7  2  0
  6 33  1  0
  7  8  1  0
  7 34  1  0
  8  9  1  1
  8 11  1  0
  8 12  1  0
  9 10  1  0
 10 35  1  0
 10 36  1  0
 10 37  1  0
 12 24  1  0
 12 13  1  0
 12 38  1  1
 13 18  2  0
 13 14  1  0
 14 20  1  0
 14 15  2  0
 15 16  1  0
 15 39  1  0
 16 17  2  0
 16 40  1  0
 17 18  1  0
 18 19  1  0
 19 20  1  0
 19 41  1  6
 20 21  1  0
 20 42  1  1
 21 22  1  0
 22 23  1  0
 22 24  1  0
 22 43  1  6
 23 44  1  0
 23 45  1  0
 23 46  1  0
 24 47  1  6
M  END
>  <i_m_ct_stereo_status>  (200) 
1

>  <s_m_source_file>  (200) 
/var/tmp/pbs.5076255.sched01/tmpl83nofxy/76c90atywu.sdf

>  <i_m_source_file_index>  (200) 
22

>  <i_lp_mmshare_version>  (200) 
48012

>  <i_f3d_flags>  (200) 
0

>  <s_epik_input>  (200) 
W0NIM11bQ0gyXVtDSDJdW0NAXTEyW0NASF0zW0NIXT1bQ0hdW0NAQF0oTzMpKE9bQ0gzXSlbQ0BASF00YzVjNltDQEBIXShPW0NAQEhdKFtDSDNdKVtDQEhdMjQpW0NAQEhdMWM1bltjSF1bY0hdNg==

>  <s_epik_cmdline>  (200) 
J2VwaWtfcHl0aG9uJywgJy1waHQnLCAnMi4wJywgJy1waCcsICc3LjAnLCAnLXRuJywgJzgnLCAnLW1hJywgJzIwMCcsICctaW1hZScsICc8aW5maWxlLm1hZT4nLCAnLW9tYWUnLCAnPG91dGZpbGUubWFlPic=

>  <r_epik_Ionization_Penalty>  (200) 
0.0992809

>  <r_epik_Ionization_Penalty_Charging>  (200) 
0

>  <r_epik_Ionization_Penalty_Neutral>  (200) 
0.0992809

>  <r_epik_State_Penalty>  (200) 
0.0893387

>  <r_epik_Charging_Adjusted_Penalty>  (200) 
0.0893387

>  <i_epik_Tot_Q>  (200) 
0

>  <i_epik_Tot_abs_Q>  (200) 
0

>  <s_lp_Force_Field>  (200) 
OPLS3e

>  <r_lp_Energy>  (200) 
176.154

>  <b_lp_Chiralities_Consistent>  (200) 
1

>  <s_lp_Variant>  (200) 
71:0-1

>  <s_i_glide_gridfile>  (200) 
pfpi4k_grid

>  <i_i_glide_lignum>  (200) 
22

>  <i_i_glide_rotatable_bonds>  (200) 
3

>  <r_i_docking_score>  (200) 
-2.63803

>  <r_i_glide_ligand_efficiency>  (200) 
-0.109918

>  <r_i_glide_ligand_efficiency_sa>  (200) 
-0.317058

>  <r_i_glide_ligand_efficiency_ln>  (200) 
-0.631401

>  <r_i_glide_gscore>  (200) 
-2.63803

>  <r_i_glide_lipo>  (200) 
-0.0684593

>  <r_i_glide_hbond>  (200) 
0

>  <r_i_glide_metal>  (200) 
-0

>  <r_i_glide_rewards>  (200) 
-1.19044

>  <r_i_glide_evdw>  (200) 
-21.2638

>  <r_i_glide_ecoul>  (200) 
-3.09819

>  <r_i_glide_erotb>  (200) 
0.176989

>  <r_i_glide_esite>  (200) 
-0.0281915

>  <r_i_glide_emodel>  (200) 
-25.7137

>  <r_i_glide_energy>  (200) 
-24.362

>  <r_i_glide_einternal>  (200) 
4.75627

>  <r_i_glide_intrahb_reward>  (200) 
-0

>  <i_i_glide_confnum>  (200) 
3

>  <i_i_glide_posenum>  (200) 
32

>  <r_i_glide_eff_state_penalty>  (200) 
0

>  <ligand_id>  (200) 
71

>  <original_smiles>  (200) 
CCCC12C3C=CC(OC)(O3)C3c4c5ccnc4C1C5OC(C)C32

>  <smiles>  (200) 
[H]C1=C([H])C2(OC([H])([H])[H])OC1([H])C1(C([H])([H])C([H])([H])C([H])([H])[H])C3([H])c4nc([H])c([H])c5c4C2([H])C1([H])C([H])(C([H])([H])[H])OC53[H]

$$$$
71:0:1
     RDKit          3D

 47 52  0  0  1  0  0  0  0  0999 V2000
    7.6973   -6.8050    1.6117 C   0  0  0  0  0  0  0  0  0  0  0  0
    6.5779   -5.7741    1.6184 C   0  0  0  0  0  0  0  0  0  0  0  0
    6.0890   -5.3474    0.2138 C   0  0  0  0  0  0  0  0  0  0  0  0
    4.9568   -4.2744    0.1562 C   0  0  2  0  0  0  0  0  0  0  0  0
    3.6409   -4.8049    0.9078 C   0  0  1  0  0  0  0  0  0  0  0  0
    3.7407   -4.7257    2.4144 C   0  0  0  0  0  0  0  0  0  0  0  0
    3.3974   -3.4963    2.7704 C   0  0  0  0  0  0  0  0  0  0  0  0
    2.9713   -2.7501    1.5115 C   0  0  2  0  0  0  0  0  0  0  0  0
    1.9006   -1.8792    1.7318 O   0  0  0  0  0  0  0  0  0  0  0  0
    2.1136   -0.8016    2.6399 C   0  0  0  0  0  0  0  0  0  0  0  0
    2.5742   -3.8659    0.7639 O   0  0  0  0  0  0  0  0  0  0  0  0
    4.1436   -2.0580    0.6709 C   0  0  2  0  0  0  0  0  0  0  0  0
    3.8640   -1.8334   -0.8635 C   0  0  0  0  0  0  0  0  0  0  0  0
    4.8449   -1.2630   -1.6829 C   0  0  0  0  0  0  0  0  0  0  0  0
    4.2140   -0.8871   -2.8977 C   0  0  0  0  0  0  0  0  0  0  0  0
    3.2048   -1.7484   -3.3829 C   0  0  0  0  0  0  0  0  0  0  0  0
    2.8599   -2.8636   -2.6992 N   0  0  0  0  0  0  0  0  0  0  0  0
    3.3574   -3.0193   -1.4387 C   0  0  0  0  0  0  0  0  0  0  0  0
    4.6871   -3.7613   -1.3372 C   0  0  1  0  0  0  0  0  0  0  0  0
    5.6401   -2.5875   -1.7987 C   0  0  2  0  0  0  0  0  0  0  0  0
    6.8729   -2.5292   -1.1133 O   0  0  0  0  0  0  0  0  0  0  0  0
    6.7372   -2.4004    0.2933 C   0  0  1  0  0  0  0  0  0  0  0  0
    7.0384   -0.9689    0.7436 C   0  0  0  0  0  0  0  0  0  0  0  0
    5.4012   -2.9603    0.8432 C   0  0  2  0  0  0  0  0  0  0  0  0
    7.9609   -7.0547    2.6408 H   0  0  0  0  0  0  0  0  0  0  0  0
    8.5952   -6.4419    1.1078 H   0  0  0  0  0  0  0  0  0  0  0  0
    7.3644   -7.7250    1.1301 H   0  0  0  0  0  0  0  0  0  0  0  0
    5.7725   -6.2572    2.1609 H   0  0  0  0  0  0  0  0  0  0  0  0
    6.9055   -4.9052    2.1905 H   0  0  0  0  0  0  0  0  0  0  0  0
    6.9611   -4.9818   -0.3112 H   0  0  0  0  0  0  0  0  0  0  0  0
    5.7502   -6.2383   -0.3187 H   0  0  0  0  0  0  0  0  0  0  0  0
    3.3174   -5.7836    0.5555 H   0  0  0  0  0  0  0  0  0  0  0  0
    4.0149   -5.5261    3.0838 H   0  0  0  0  0  0  0  0  0  0  0  0
    3.3653   -3.1185    3.7801 H   0  0  0  0  0  0  0  0  0  0  0  0
    1.1773   -0.2600    2.7766 H   0  0  0  0  0  0  0  0  0  0  0  0
    2.8443   -0.0848    2.2662 H   0  0  0  0  0  0  0  0  0  0  0  0
    2.4346   -1.1303    3.6298 H   0  0  0  0  0  0  0  0  0  0  0  0
    4.3764   -1.0914    1.1025 H   0  0  0  0  0  0  0  0  0  0  0  0
    4.5423   -0.0378   -3.4770 H   0  0  0  0  0  0  0  0  0  0  0  0
    2.7152   -1.5678   -4.3294 H   0  0  0  0  0  0  0  0  0  0  0  0
    4.7081   -4.5919   -2.0383 H   0  0  0  0  0  0  0  0  0  0  0  0
    5.8700   -2.7256   -2.8564 H   0  0  0  0  0  0  0  0  0  0  0  0
    7.5492   -3.0046    0.6922 H   0  0  0  0  0  0  0  0  0  0  0  0
    6.9566   -0.8911    1.8284 H   0  0  0  0  0  0  0  0  0  0  0  0
    6.3603   -0.2319    0.3135 H   0  0  0  0  0  0  0  0  0  0  0  0
    8.0546   -0.6793    0.4800 H   0  0  0  0  0  0  0  0  0  0  0  0
    5.6293   -3.0858    1.8962 H   0  0  0  0  0  0  0  0  0  0  0  0
  1  2  1  0
  1 25  1  0
  1 26  1  0
  1 27  1  0
  2  3  1  0
  2 28  1  0
  2 29  1  0
  4  3  1  6
  3 30  1  0
  3 31  1  0
  4 19  1  0
  4 24  1  0
  4  5  1  0
  5 11  1  0
  5  6  1  0
  5 32  1  1
  6  7  2  0
  6 33  1  0
  7  8  1  0
  7 34  1  0
  8  9  1  1
  8 11  1  0
  8 12  1  0
  9 10  1  0
 10 35  1  0
 10 36  1  0
 10 37  1  0
 12 24  1  0
 12 13  1  0
 12 38  1  1
 13 18  2  0
 13 14  1  0
 14 20  1  0
 14 15  2  0
 15 16  1  0
 15 39  1  0
 16 17  2  0
 16 40  1  0
 17 18  1  0
 18 19  1  0
 19 20  1  0
 19 41  1  6
 20 21  1  0
 20 42  1  6
 21 22  1  0
 22 23  1  0
 22 24  1  0
 22 43  1  1
 23 44  1  0
 23 45  1  0
 23 46  1  0
 24 47  1  1
M  END
>  <i_m_ct_stereo_status>  (201) 
1

>  <s_m_source_file>  (201) 
/var/tmp/pbs.5076255.sched01/tmpl83nofxy/76c90atywu.sdf

>  <i_m_source_file_index>  (201) 
22

>  <i_lp_mmshare_version>  (201) 
48012

>  <i_f3d_flags>  (201) 
0

>  <s_epik_input>  (201) 
W0NIM11bQ0gyXVtDSDJdW0NAXTEyW0NASF0zW0NIXT1bQ0hdW0NAQF0oTzMpKE9bQ0gzXSlbQ0BASF00YzVjNltDQEBIXShPW0NAQEhdKFtDSDNdKVtDQEhdMjQpW0NAQEhdMWM1bltjSF1bY0hdNg==

>  <s_epik_cmdline>  (201) 
J2VwaWtfcHl0aG9uJywgJy1waHQnLCAnMi4wJywgJy1waCcsICc3LjAnLCAnLXRuJywgJzgnLCAnLW1hJywgJzIwMCcsICctaW1hZScsICc8aW5maWxlLm1hZT4nLCAnLW9tYWUnLCAnPG91dGZpbGUubWFlPic=

>  <r_epik_Ionization_Penalty>  (201) 
0.0992809

>  <r_epik_Ionization_Penalty_Charging>  (201) 
0

>  <r_epik_Ionization_Penalty_Neutral>  (201) 
0.0992809

>  <r_epik_State_Penalty>  (201) 
0.0893387

>  <r_epik_Charging_Adjusted_Penalty>  (201) 
0.0893387

>  <i_epik_Tot_Q>  (201) 
0

>  <i_epik_Tot_abs_Q>  (201) 
0

>  <s_lp_Force_Field>  (201) 
OPLS3e

>  <r_lp_Energy>  (201) 
176.154

>  <b_lp_Chiralities_Consistent>  (201) 
1

>  <s_lp_Variant>  (201) 
71:0-1

>  <s_i_glide_gridfile>  (201) 
pfpi4k_grid

>  <i_i_glide_lignum>  (201) 
22

>  <i_i_glide_rotatable_bonds>  (201) 
3

>  <r_i_docking_score>  (201) 
-2.60338

>  <r_i_glide_ligand_efficiency>  (201) 
-0.108474

>  <r_i_glide_ligand_efficiency_sa>  (201) 
-0.312893

>  <r_i_glide_ligand_efficiency_ln>  (201) 
-0.623107

>  <r_i_glide_gscore>  (201) 
-2.60338

>  <r_i_glide_lipo>  (201) 
-0.58959

>  <r_i_glide_hbond>  (201) 
-0.0978648

>  <r_i_glide_metal>  (201) 
-0

>  <r_i_glide_rewards>  (201) 
-1.19044

>  <r_i_glide_evdw>  (201) 
-25.3078

>  <r_i_glide_ecoul>  (201) 
2.49668

>  <r_i_glide_erotb>  (201) 
0.176989

>  <r_i_glide_esite>  (201) 
-0.0115784

>  <r_i_glide_emodel>  (201) 
-24.0825

>  <r_i_glide_energy>  (201) 
-22.8111

>  <r_i_glide_einternal>  (201) 
4.96105

>  <r_i_glide_intrahb_reward>  (201) 
-0

>  <i_i_glide_confnum>  (201) 
6

>  <i_i_glide_posenum>  (201) 
11

>  <r_i_glide_eff_state_penalty>  (201) 
0

>  <ligand_id>  (201) 
71

>  <original_smiles>  (201) 
CCCC12C3C=CC(OC)(O3)C3c4c5ccnc4C1C5OC(C)C32

>  <smiles>  (201) 
[H]C1=C([H])C2(OC([H])([H])[H])OC1([H])C1(C([H])([H])C([H])([H])C([H])([H])[H])C3([H])c4nc([H])c([H])c5c4C2([H])C1([H])C([H])(C([H])([H])[H])OC53[H]

$$$$
71:0:2
     RDKit          3D

 47 52  0  0  1  0  0  0  0  0999 V2000
    2.2258    6.5383    3.7634 C   0  0  0  0  0  0  0  0  0  0  0  0
    1.1330    5.4760    3.9529 C   0  0  0  0  0  0  0  0  0  0  0  0
    1.6668    4.2023    4.6315 C   0  0  0  0  0  0  0  0  0  0  0  0
    0.6209    3.1105    5.0021 C   0  0  2  0  0  0  0  0  0  0  0  0
   -0.0833    2.5433    3.6750 C   0  0  1  0  0  0  0  0  0  0  0  0
    0.8094    1.6066    2.9018 C   0  0  0  0  0  0  0  0  0  0  0  0
    0.6289    0.3920    3.4082 C   0  0  0  0  0  0  0  0  0  0  0  0
   -0.4192    0.4865    4.5232 C   0  0  2  0  0  0  0  0  0  0  0  0
   -1.2628   -0.6283    4.6093 O   0  0  0  0  0  0  0  0  0  0  0  0
   -0.6371   -1.8692    4.9255 C   0  0  0  0  0  0  0  0  0  0  0  0
   -1.0999    1.5904    4.0133 O   0  0  0  0  0  0  0  0  0  0  0  0
    0.1224    0.9494    5.9608 C   0  0  2  0  0  0  0  0  0  0  0  0
   -0.9164    1.6470    6.9283 C   0  0  0  0  0  0  0  0  0  0  0  0
   -0.4944    2.0764    8.1909 C   0  0  0  0  0  0  0  0  0  0  0  0
   -1.6826    2.3578    8.9207 C   0  0  0  0  0  0  0  0  0  0  0  0
   -2.7590    2.9380    8.2062 C   0  0  0  0  0  0  0  0  0  0  0  0
   -2.6782    3.1403    6.8691 N   0  0  0  0  0  0  0  0  0  0  0  0
   -1.6049    2.6376    6.1932 C   0  0  0  0  0  0  0  0  0  0  0  0
   -0.3949    3.5600    6.1445 C   0  0  1  0  0  0  0  0  0  0  0  0
    0.1628    3.3489    7.6118 C   0  0  2  0  0  0  0  0  0  0  0  0
    1.5745    3.3244    7.6882 O   0  0  0  0  0  0  0  0  0  0  0  0
    2.1736    2.2929    6.9277 C   0  0  1  0  0  0  0  0  0  0  0  0
    2.6184    1.1107    7.8083 C   0  0  0  0  0  0  0  0  0  0  0  0
    1.3257    1.9083    5.6876 C   0  0  2  0  0  0  0  0  0  0  0  0
    1.8170    7.4264    3.2834 H   0  0  0  0  0  0  0  0  0  0  0  0
    3.0401    6.1712    3.1366 H   0  0  0  0  0  0  0  0  0  0  0  0
    2.6517    6.8548    4.7177 H   0  0  0  0  0  0  0  0  0  0  0  0
    0.3374    5.9192    4.5496 H   0  0  0  0  0  0  0  0  0  0  0  0
    0.7069    5.2356    2.9784 H   0  0  0  0  0  0  0  0  0  0  0  0
    2.4249    3.7615    3.9823 H   0  0  0  0  0  0  0  0  0  0  0  0
    2.2082    4.5256    5.5168 H   0  0  0  0  0  0  0  0  0  0  0  0
   -0.5243    3.3144    3.0442 H   0  0  0  0  0  0  0  0  0  0  0  0
    1.4487    1.8961    2.0802 H   0  0  0  0  0  0  0  0  0  0  0  0
    1.1027   -0.5148    3.0591 H   0  0  0  0  0  0  0  0  0  0  0  0
   -1.3873   -2.6553    4.8882 H   0  0  0  0  0  0  0  0  0  0  0  0
   -0.2217   -1.9005    5.9313 H   0  0  0  0  0  0  0  0  0  0  0  0
    0.1430   -2.1530    4.2201 H   0  0  0  0  0  0  0  0  0  0  0  0
    0.5301    0.0808    6.4603 H   0  0  0  0  0  0  0  0  0  0  0  0
   -1.7146    2.2779    9.9916 H   0  0  0  0  0  0  0  0  0  0  0  0
   -3.6723    3.2516    8.7186 H   0  0  0  0  0  0  0  0  0  0  0  0
   -0.7181    4.5868    5.9926 H   0  0  0  0  0  0  0  0  0  0  0  0
   -0.1672    4.1946    8.2137 H   0  0  0  0  0  0  0  0  0  0  0  0
    3.0963    2.7428    6.5734 H   0  0  0  0  0  0  0  0  0  0  0  0
    3.1061    0.3459    7.2028 H   0  0  0  0  0  0  0  0  0  0  0  0
    1.7890    0.6375    8.3313 H   0  0  0  0  0  0  0  0  0  0  0  0
    3.3337    1.4355    8.5639 H   0  0  0  0  0  0  0  0  0  0  0  0
    2.0832    1.4461    5.0513 H   0  0  0  0  0  0  0  0  0  0  0  0
  1  2  1  0
  1 25  1  0
  1 26  1  0
  1 27  1  0
  2  3  1  0
  2 28  1  0
  2 29  1  0
  4  3  1  6
  3 30  1  0
  3 31  1  0
  4 19  1  0
  4 24  1  0
  4  5  1  0
  5 11  1  0
  5  6  1  0
  5 32  1  6
  6  7  2  0
  6 33  1  0
  7  8  1  0
  7 34  1  0
  8  9  1  1
  8 11  1  0
  8 12  1  0
  9 10  1  0
 10 35  1  0
 10 36  1  0
 10 37  1  0
 12 24  1  0
 12 13  1  0
 12 38  1  1
 13 18  2  0
 13 14  1  0
 14 20  1  0
 14 15  2  0
 15 16  1  0
 15 39  1  0
 16 17  2  0
 16 40  1  0
 17 18  1  0
 18 19  1  0
 19 20  1  0
 19 41  1  6
 20 21  1  0
 20 42  1  1
 21 22  1  0
 22 23  1  0
 22 24  1  0
 22 43  1  6
 23 44  1  0
 23 45  1  0
 23 46  1  0
 24 47  1  6
M  END
>  <i_m_ct_stereo_status>  (202) 
1

>  <s_m_source_file>  (202) 
/var/tmp/pbs.5076255.sched01/tmpl83nofxy/76c90atywu.sdf

>  <i_m_source_file_index>  (202) 
22

>  <i_lp_mmshare_version>  (202) 
48012

>  <i_f3d_flags>  (202) 
0

>  <s_epik_input>  (202) 
W0NIM11bQ0gyXVtDSDJdW0NAXTEyW0NASF0zW0NIXT1bQ0hdW0NAQF0oTzMpKE9bQ0gzXSlbQ0BASF00YzVjNltDQEBIXShPW0NAQEhdKFtDSDNdKVtDQEhdMjQpW0NAQEhdMWM1bltjSF1bY0hdNg==

>  <s_epik_cmdline>  (202) 
J2VwaWtfcHl0aG9uJywgJy1waHQnLCAnMi4wJywgJy1waCcsICc3LjAnLCAnLXRuJywgJzgnLCAnLW1hJywgJzIwMCcsICctaW1hZScsICc8aW5maWxlLm1hZT4nLCAnLW9tYWUnLCAnPG91dGZpbGUubWFlPic=

>  <r_epik_Ionization_Penalty>  (202) 
0.0992809

>  <r_epik_Ionization_Penalty_Charging>  (202) 
0

>  <r_epik_Ionization_Penalty_Neutral>  (202) 
0.0992809

>  <r_epik_State_Penalty>  (202) 
0.0893387

>  <r_epik_Charging_Adjusted_Penalty>  (202) 
0.0893387

>  <i_epik_Tot_Q>  (202) 
0

>  <i_epik_Tot_abs_Q>  (202) 
0

>  <s_lp_Force_Field>  (202) 
OPLS3e

>  <r_lp_Energy>  (202) 
176.154

>  <b_lp_Chiralities_Consistent>  (202) 
1

>  <s_lp_Variant>  (202) 
71:0-1

>  <s_i_glide_gridfile>  (202) 
pfpi4k_grid

>  <i_i_glide_lignum>  (202) 
22

>  <i_i_glide_rotatable_bonds>  (202) 
3

>  <r_i_docking_score>  (202) 
-2.46411

>  <r_i_glide_ligand_efficiency>  (202) 
-0.102671

>  <r_i_glide_ligand_efficiency_sa>  (202) 
-0.296155

>  <r_i_glide_ligand_efficiency_ln>  (202) 
-0.589775

>  <r_i_glide_gscore>  (202) 
-2.46411

>  <r_i_glide_lipo>  (202) 
-0.152355

>  <r_i_glide_hbond>  (202) 
0

>  <r_i_glide_metal>  (202) 
-0

>  <r_i_glide_rewards>  (202) 
-1.19044

>  <r_i_glide_evdw>  (202) 
-18.5044

>  <r_i_glide_ecoul>  (202) 
-2.37788

>  <r_i_glide_erotb>  (202) 
0.176989

>  <r_i_glide_esite>  (202) 
-0.0164014

>  <r_i_glide_emodel>  (202) 
-23.3145

>  <r_i_glide_energy>  (202) 
-20.8822

>  <r_i_glide_einternal>  (202) 
3.07

>  <r_i_glide_intrahb_reward>  (202) 
-0

>  <i_i_glide_confnum>  (202) 
4

>  <i_i_glide_posenum>  (202) 
36

>  <r_i_glide_eff_state_penalty>  (202) 
0

>  <ligand_id>  (202) 
71

>  <original_smiles>  (202) 
CCCC12C3C=CC(OC)(O3)C3c4c5ccnc4C1C5OC(C)C32

>  <smiles>  (202) 
[H]C1=C([H])C2(OC([H])([H])[H])OC1([H])C1(C([H])([H])C([H])([H])C([H])([H])[H])C3([H])c4nc([H])c([H])c5c4C2([H])C1([H])C([H])(C([H])([H])[H])OC53[H]

$$$$
71:1:0
     RDKit          3D

 48 53  0  0  1  0  0  0  0  0999 V2000
    8.2410   -6.3896    1.7921 C   0  0  0  0  0  0  0  0  0  0  0  0
    6.9366   -5.6026    1.8483 C   0  0  0  0  0  0  0  0  0  0  0  0
    6.3110   -5.3055    0.4689 C   0  0  0  0  0  0  0  0  0  0  0  0
    5.0344   -4.4071    0.4611 C   0  0  2  0  0  0  0  0  0  0  0  0
    3.8655   -5.0737    1.3422 C   0  0  1  0  0  0  0  0  0  0  0  0
    4.0603   -4.8855    2.8280 C   0  0  0  0  0  0  0  0  0  0  0  0
    3.5579   -3.6993    3.1481 C   0  0  0  0  0  0  0  0  0  0  0  0
    2.9485   -3.0957    1.8860 C   0  0  2  0  0  0  0  0  0  0  0  0
    1.7865   -2.3699    2.1332 O   0  0  0  0  0  0  0  0  0  0  0  0
    1.8881   -1.2265    2.9766 C   0  0  0  0  0  0  0  0  0  0  0  0
    2.6630   -4.3007    1.2303 O   0  0  0  0  0  0  0  0  0  0  0  0
    3.9460   -2.3001    0.9221 C   0  0  2  0  0  0  0  0  0  0  0  0
    3.5359   -2.2127   -0.5957 C   0  0  0  0  0  0  0  0  0  0  0  0
    4.3573   -1.5512   -1.5142 C   0  0  0  0  0  0  0  0  0  0  0  0
    3.6036   -1.3401   -2.7008 C   0  0  0  0  0  0  0  0  0  0  0  0
    2.7115   -2.3706   -3.1167 C   0  0  0  0  0  0  0  0  0  0  0  0
    2.5843   -3.4562   -2.3089 N   0  0  0  0  0  0  0  0  0  0  0  0
    3.1545   -3.4843   -1.0699 C   0  0  0  0  0  0  0  0  0  0  0  0
    4.5795   -4.0255   -1.0245 C   0  0  1  0  0  0  0  0  0  0  0  0
    5.3237   -2.7571   -1.6181 C   0  0  2  0  0  0  0  0  0  0  0  0
    6.5824   -2.4936   -1.0275 O   0  0  0  0  0  0  0  0  0  0  0  0
    6.5229   -2.2902    0.3742 C   0  0  1  0  0  0  0  0  0  0  0  0
    6.6301   -0.8030    0.7202 C   0  0  0  0  0  0  0  0  0  0  0  0
    5.3258   -3.0046    1.0511 C   0  0  2  0  0  0  0  0  0  0  0  0
    8.6125   -6.5669    2.8038 H   0  0  0  0  0  0  0  0  0  0  0  0
    9.0153   -5.8567    1.2390 H   0  0  0  0  0  0  0  0  0  0  0  0
    8.0858   -7.3633    1.3277 H   0  0  0  0  0  0  0  0  0  0  0  0
    6.2638   -6.2123    2.4423 H   0  0  0  0  0  0  0  0  0  0  0  0
    7.1177   -4.6790    2.3991 H   0  0  0  0  0  0  0  0  0  0  0  0
    7.0794   -4.8527   -0.1510 H   0  0  0  0  0  0  0  0  0  0  0  0
    6.0726   -6.2534   -0.0110 H   0  0  0  0  0  0  0  0  0  0  0  0
    3.6647   -6.1089    1.0748 H   0  0  0  0  0  0  0  0  0  0  0  0
    4.5176   -5.5873    3.5086 H   0  0  0  0  0  0  0  0  0  0  0  0
    3.5457   -3.2634    4.1363 H   0  0  0  0  0  0  0  0  0  0  0  0
    0.8890   -0.8259    3.1500 H   0  0  0  0  0  0  0  0  0  0  0  0
    2.4754   -0.4310    2.5197 H   0  0  0  0  0  0  0  0  0  0  0  0
    2.3113   -1.4485    3.9566 H   0  0  0  0  0  0  0  0  0  0  0  0
    4.0599   -1.2890    1.2997 H   0  0  0  0  0  0  0  0  0  0  0  0
    3.7933   -0.4857   -3.3347 H   0  0  0  0  0  0  0  0  0  0  0  0
    2.1703   -2.3755   -4.0583 H   0  0  0  0  0  0  0  0  0  0  0  0
    4.6866   -4.8905   -1.6801 H   0  0  0  0  0  0  0  0  0  0  0  0
    5.5080   -2.9366   -2.6821 H   0  0  0  0  0  0  0  0  0  0  0  0
    7.4408   -2.7472    0.7444 H   0  0  0  0  0  0  0  0  0  0  0  0
    6.6114   -0.6602    1.8022 H   0  0  0  0  0  0  0  0  0  0  0  0
    5.8332   -0.1925    0.2940 H   0  0  0  0  0  0  0  0  0  0  0  0
    7.5794   -0.4133    0.3659 H   0  0  0  0  0  0  0  0  0  0  0  0
    5.6484   -3.0356    2.0902 H   0  0  0  0  0  0  0  0  0  0  0  0
    2.1209   -4.2994   -2.6631 H   0  0  0  0  0  0  0  0  0  0  0  0
  1  2  1  0
  1 25  1  0
  1 26  1  0
  1 27  1  0
  2  3  1  0
  2 28  1  0
  2 29  1  0
  4  3  1  6
  3 30  1  0
  3 31  1  0
  4 19  1  0
  4 24  1  0
  4  5  1  0
  5 11  1  0
  5  6  1  0
  5 32  1  1
  6  7  2  0
  6 33  1  0
  7  8  1  0
  7 34  1  0
  8  9  1  1
  8 11  1  0
  8 12  1  0
  9 10  1  0
 10 35  1  0
 10 36  1  0
 10 37  1  0
 12 24  1  0
 12 13  1  0
 12 38  1  1
 13 18  2  0
 13 14  1  0
 14 20  1  0
 14 15  2  0
 15 16  1  0
 15 39  1  0
 16 17  2  0
 16 40  1  0
 17 18  1  0
 17 48  1  0
 18 19  1  0
 19 20  1  0
 19 41  1  6
 20 21  1  0
 20 42  1  6
 21 22  1  0
 22 23  1  0
 22 24  1  0
 22 43  1  1
 23 44  1  0
 23 45  1  0
 23 46  1  0
 24 47  1  1
M  CHG  1  17   1
M  END
>  <i_m_ct_stereo_status>  (203) 
1

>  <s_m_source_file>  (203) 
/var/tmp/pbs.5076255.sched01/tmpl83nofxy/76c90atywu.sdf

>  <i_m_source_file_index>  (203) 
23

>  <i_lp_mmshare_version>  (203) 
48012

>  <i_f3d_flags>  (203) 
0

>  <s_epik_input>  (203) 
W0NIM11bQ0gyXVtDSDJdW0NAXTEyW0NASF0zW0NIXT1bQ0hdW0NAQF0oTzMpKE9bQ0gzXSlbQ0BASF00YzVjNltDQEBIXShPW0NAQEhdKFtDSDNdKVtDQEhdMjQpW0NAQEhdMWM1bltjSF1bY0hdNg==

>  <s_epik_cmdline>  (203) 
J2VwaWtfcHl0aG9uJywgJy1waHQnLCAnMi4wJywgJy1waCcsICc3LjAnLCAnLXRuJywgJzgnLCAnLW1hJywgJzIwMCcsICctaW1hZScsICc8aW5maWxlLm1hZT4nLCAnLW9tYWUnLCAnPG91dGZpbGUubWFlPic=

>  <r_epik_Ionization_Penalty>  (203) 
1.10735

>  <r_epik_Ionization_Penalty_Charging>  (203) 
1.10735

>  <r_epik_Ionization_Penalty_Neutral>  (203) 
1.01431e-13

>  <r_epik_State_Penalty>  (203) 
1.16503

>  <r_epik_Charging_Adjusted_Penalty>  (203) 
2.27238

>  <i_epik_Tot_Q>  (203) 
1

>  <i_epik_Tot_abs_Q>  (203) 
1

>  <s_lp_Force_Field>  (203) 
OPLS3e

>  <r_lp_Energy>  (203) 
187.312

>  <b_lp_Chiralities_Consistent>  (203) 
1

>  <s_lp_Variant>  (203) 
71:0-2

>  <s_i_glide_gridfile>  (203) 
pfpi4k_grid

>  <i_i_glide_lignum>  (203) 
23

>  <i_i_glide_rotatable_bonds>  (203) 
3

>  <r_i_docking_score>  (203) 
-3.14981

>  <r_i_glide_ligand_efficiency>  (203) 
-0.131242

>  <r_i_glide_ligand_efficiency_sa>  (203) 
-0.378568

>  <r_i_glide_ligand_efficiency_ln>  (203) 
-0.753894

>  <r_i_glide_gscore>  (203) 
-3.14981

>  <r_i_glide_lipo>  (203) 
-0.511538

>  <r_i_glide_hbond>  (203) 
-0.0468804

>  <r_i_glide_metal>  (203) 
-0

>  <r_i_glide_rewards>  (203) 
-1.18357

>  <r_i_glide_evdw>  (203) 
-21.0893

>  <r_i_glide_ecoul>  (203) 
-3.501

>  <r_i_glide_erotb>  (203) 
0.176026

>  <r_i_glide_esite>  (203) 
-0.00423191

>  <r_i_glide_emodel>  (203) 
-27.8164

>  <r_i_glide_energy>  (203) 
-24.5903

>  <r_i_glide_einternal>  (203) 
4.62362

>  <r_i_glide_intrahb_reward>  (203) 
-0

>  <i_i_glide_confnum>  (203) 
6

>  <i_i_glide_posenum>  (203) 
15

>  <r_i_glide_eff_state_penalty>  (203) 
0

>  <ligand_id>  (203) 
71

>  <original_smiles>  (203) 
CCCC12C3C=CC(OC)(O3)C3c4c5ccnc4C1C5OC(C)C32

>  <smiles>  (203) 
[H]C1=C([H])C2(OC([H])([H])[H])OC1([H])C1(C([H])([H])C([H])([H])C([H])([H])[H])C3([H])c4c5c(c([H])c([H])[n+]4[H])C3([H])OC([H])(C([H])([H])[H])C1([H])C52[H]

$$$$
71:1:1
     RDKit          3D

 48 53  0  0  1  0  0  0  0  0999 V2000
    6.9258    0.6219    5.9035 C   0  0  0  0  0  0  0  0  0  0  0  0
    5.9626   -0.0286    4.9149 C   0  0  0  0  0  0  0  0  0  0  0  0
    4.6800    0.7800    4.6268 C   0  0  0  0  0  0  0  0  0  0  0  0
    3.6501    0.1075    3.6614 C   0  0  2  0  0  0  0  0  0  0  0  0
    4.3383   -0.2945    2.2591 C   0  0  1  0  0  0  0  0  0  0  0  0
    5.1583   -1.5633    2.3417 C   0  0  0  0  0  0  0  0  0  0  0  0
    4.3300   -2.5883    2.1745 C   0  0  0  0  0  0  0  0  0  0  0  0
    2.9619   -2.0031    1.8840 C   0  0  2  0  0  0  0  0  0  0  0  0
    2.2181   -2.7807    1.0139 O   0  0  0  0  0  0  0  0  0  0  0  0
    2.7548   -3.0251   -0.2779 C   0  0  0  0  0  0  0  0  0  0  0  0
    3.3517   -0.7745    1.3439 O   0  0  0  0  0  0  0  0  0  0  0  0
    2.0795   -1.6555    3.1678 C   0  0  2  0  0  0  0  0  0  0  0  0
    0.9611   -0.5633    2.9670 C   0  0  0  0  0  0  0  0  0  0  0  0
    0.1598   -0.1707    4.0553 C   0  0  0  0  0  0  0  0  0  0  0  0
   -0.9567    0.5487    3.5386 C   0  0  0  0  0  0  0  0  0  0  0  0
   -0.7246    1.4288    2.4502 C   0  0  0  0  0  0  0  0  0  0  0  0
    0.5273    1.4682    1.9222 N   0  0  0  0  0  0  0  0  0  0  0  0
    1.4825    0.5678    2.3022 C   0  0  0  0  0  0  0  0  0  0  0  0
    2.3303    0.9954    3.5019 C   0  0  1  0  0  0  0  0  0  0  0  0
    1.2581    0.7522    4.6364 C   0  0  2  0  0  0  0  0  0  0  0  0
    1.7994    0.2527    5.8432 O   0  0  0  0  0  0  0  0  0  0  0  0
    2.4719   -0.9864    5.7035 C   0  0  1  0  0  0  0  0  0  0  0  0
    1.6191   -2.1559    6.2181 C   0  0  0  0  0  0  0  0  0  0  0  0
    3.0676   -1.1936    4.2820 C   0  0  2  0  0  0  0  0  0  0  0  0
    7.8034   -0.0145    6.0385 H   0  0  0  0  0  0  0  0  0  0  0  0
    6.4629    0.7758    6.8792 H   0  0  0  0  0  0  0  0  0  0  0  0
    7.2761    1.5772    5.5127 H   0  0  0  0  0  0  0  0  0  0  0  0
    6.5406   -0.1361    3.9989 H   0  0  0  0  0  0  0  0  0  0  0  0
    5.7173   -1.0306    5.2807 H   0  0  0  0  0  0  0  0  0  0  0  0
    4.2114    1.0326    5.5756 H   0  0  0  0  0  0  0  0  0  0  0  0
    4.9638    1.7391    4.2049 H   0  0  0  0  0  0  0  0  0  0  0  0
    4.8834    0.5292    1.7963 H   0  0  0  0  0  0  0  0  0  0  0  0
    6.2243   -1.6301    2.4995 H   0  0  0  0  0  0  0  0  0  0  0  0
    4.5777   -3.6382    2.1772 H   0  0  0  0  0  0  0  0  0  0  0  0
    1.9833   -3.4795   -0.8978 H   0  0  0  0  0  0  0  0  0  0  0  0
    3.5990   -3.7116   -0.2483 H   0  0  0  0  0  0  0  0  0  0  0  0
    3.0584   -2.1035   -0.7692 H   0  0  0  0  0  0  0  0  0  0  0  0
    1.5947   -2.5769    3.4909 H   0  0  0  0  0  0  0  0  0  0  0  0
   -1.9158    0.5647    4.0402 H   0  0  0  0  0  0  0  0  0  0  0  0
   -1.4492    2.1203    2.0431 H   0  0  0  0  0  0  0  0  0  0  0  0
    2.5908    2.0519    3.4176 H   0  0  0  0  0  0  0  0  0  0  0  0
    0.7785    1.7086    4.8741 H   0  0  0  0  0  0  0  0  0  0  0  0
    3.3040   -0.9043    6.4022 H   0  0  0  0  0  0  0  0  0  0  0  0
    2.1740   -3.0912    6.1341 H   0  0  0  0  0  0  0  0  0  0  0  0
    0.6840   -2.2783    5.6694 H   0  0  0  0  0  0  0  0  0  0  0  0
    1.3677   -2.0193    7.2700 H   0  0  0  0  0  0  0  0  0  0  0  0
    3.8214   -1.9553    4.4718 H   0  0  0  0  0  0  0  0  0  0  0  0
    0.7449    2.2208    1.2600 H   0  0  0  0  0  0  0  0  0  0  0  0
  1  2  1  0
  1 25  1  0
  1 26  1  0
  1 27  1  0
  2  3  1  0
  2 28  1  0
  2 29  1  0
  4  3  1  1
  3 30  1  0
  3 31  1  0
  4 19  1  0
  4 24  1  0
  4  5  1  0
  5 11  1  0
  5  6  1  0
  5 32  1  6
  6  7  2  0
  6 33  1  0
  7  8  1  0
  7 34  1  0
  8  9  1  6
  8 11  1  0
  8 12  1  0
  9 10  1  0
 10 35  1  0
 10 36  1  0
 10 37  1  0
 12 24  1  0
 12 13  1  0
 12 38  1  1
 13 18  2  0
 13 14  1  0
 14 20  1  0
 14 15  2  0
 15 16  1  0
 15 39  1  0
 16 17  2  0
 16 40  1  0
 17 18  1  0
 17 48  1  0
 18 19  1  0
 19 20  1  0
 19 41  1  6
 20 21  1  0
 20 42  1  1
 21 22  1  0
 22 23  1  0
 22 24  1  0
 22 43  1  1
 23 44  1  0
 23 45  1  0
 23 46  1  0
 24 47  1  1
M  CHG  1  17   1
M  END
>  <i_m_ct_stereo_status>  (204) 
1

>  <s_m_source_file>  (204) 
/var/tmp/pbs.5076255.sched01/tmpl83nofxy/76c90atywu.sdf

>  <i_m_source_file_index>  (204) 
23

>  <i_lp_mmshare_version>  (204) 
48012

>  <i_f3d_flags>  (204) 
0

>  <s_epik_input>  (204) 
W0NIM11bQ0gyXVtDSDJdW0NAXTEyW0NASF0zW0NIXT1bQ0hdW0NAQF0oTzMpKE9bQ0gzXSlbQ0BASF00YzVjNltDQEBIXShPW0NAQEhdKFtDSDNdKVtDQEhdMjQpW0NAQEhdMWM1bltjSF1bY0hdNg==

>  <s_epik_cmdline>  (204) 
J2VwaWtfcHl0aG9uJywgJy1waHQnLCAnMi4wJywgJy1waCcsICc3LjAnLCAnLXRuJywgJzgnLCAnLW1hJywgJzIwMCcsICctaW1hZScsICc8aW5maWxlLm1hZT4nLCAnLW9tYWUnLCAnPG91dGZpbGUubWFlPic=

>  <r_epik_Ionization_Penalty>  (204) 
1.10735

>  <r_epik_Ionization_Penalty_Charging>  (204) 
1.10735

>  <r_epik_Ionization_Penalty_Neutral>  (204) 
1.01431e-13

>  <r_epik_State_Penalty>  (204) 
1.16503

>  <r_epik_Charging_Adjusted_Penalty>  (204) 
2.27238

>  <i_epik_Tot_Q>  (204) 
1

>  <i_epik_Tot_abs_Q>  (204) 
1

>  <s_lp_Force_Field>  (204) 
OPLS3e

>  <r_lp_Energy>  (204) 
187.312

>  <b_lp_Chiralities_Consistent>  (204) 
1

>  <s_lp_Variant>  (204) 
71:0-2

>  <s_i_glide_gridfile>  (204) 
pfpi4k_grid

>  <i_i_glide_lignum>  (204) 
23

>  <i_i_glide_rotatable_bonds>  (204) 
3

>  <r_i_docking_score>  (204) 
-2.75766

>  <r_i_glide_ligand_efficiency>  (204) 
-0.114902

>  <r_i_glide_ligand_efficiency_sa>  (204) 
-0.331436

>  <r_i_glide_ligand_efficiency_ln>  (204) 
-0.660034

>  <r_i_glide_gscore>  (204) 
-2.75766

>  <r_i_glide_lipo>  (204) 
-0.501044

>  <r_i_glide_hbond>  (204) 
-0.0766826

>  <r_i_glide_metal>  (204) 
-0

>  <r_i_glide_rewards>  (204) 
-1.18357

>  <r_i_glide_evdw>  (204) 
-16.5641

>  <r_i_glide_ecoul>  (204) 
-1.71922

>  <r_i_glide_erotb>  (204) 
0.176026

>  <r_i_glide_esite>  (204) 
-0.0862974

>  <r_i_glide_emodel>  (204) 
-21.9649

>  <r_i_glide_energy>  (204) 
-18.2833

>  <r_i_glide_einternal>  (204) 
2.26461

>  <r_i_glide_intrahb_reward>  (204) 
-0

>  <i_i_glide_confnum>  (204) 
3

>  <i_i_glide_posenum>  (204) 
27

>  <r_i_glide_eff_state_penalty>  (204) 
0

>  <ligand_id>  (204) 
71

>  <original_smiles>  (204) 
CCCC12C3C=CC(OC)(O3)C3c4c5ccnc4C1C5OC(C)C32

>  <smiles>  (204) 
[H]C1=C([H])C2(OC([H])([H])[H])OC1([H])C1(C([H])([H])C([H])([H])C([H])([H])[H])C3([H])c4c5c(c([H])c([H])[n+]4[H])C3([H])OC([H])(C([H])([H])[H])C1([H])C52[H]

$$$$
71:1:2
     RDKit          3D

 48 53  0  0  1  0  0  0  0  0999 V2000
    3.6886    7.1063    3.9446 C   0  0  0  0  0  0  0  0  0  0  0  0
    2.1427    7.1103    3.9127 C   0  0  0  0  0  0  0  0  0  0  0  0
    1.4416    6.2404    4.9841 C   0  0  0  0  0  0  0  0  0  0  0  0
    1.6718    4.6889    4.9370 C   0  0  2  0  0  0  0  0  0  0  0  0
    3.2238    4.3084    5.2352 C   0  0  1  0  0  0  0  0  0  0  0  0
    3.5659    4.4840    6.7030 C   0  0  0  0  0  0  0  0  0  0  0  0
    3.3045    3.3197    7.2869 C   0  0  0  0  0  0  0  0  0  0  0  0
    2.7680    2.3520    6.2218 C   0  0  2  0  0  0  0  0  0  0  0  0
    3.1851    1.0389    6.3599 O   0  0  0  0  0  0  0  0  0  0  0  0
    2.7840    0.3999    7.5608 C   0  0  0  0  0  0  0  0  0  0  0  0
    3.4148    2.9070    5.1463 O   0  0  0  0  0  0  0  0  0  0  0  0
    1.2288    2.5023    5.8573 C   0  0  2  0  0  0  0  0  0  0  0  0
    0.7764    2.0542    4.4108 C   0  0  0  0  0  0  0  0  0  0  0  0
   -0.5590    2.1262    4.0254 C   0  0  0  0  0  0  0  0  0  0  0  0
   -0.7269    1.3382    2.8584 C   0  0  0  0  0  0  0  0  0  0  0  0
    0.3049    1.3494    1.8905 C   0  0  0  0  0  0  0  0  0  0  0  0
    1.4232    2.0717    2.1717 N   0  0  0  0  0  0  0  0  0  0  0  0
    1.6062    2.6093    3.4102 C   0  0  0  0  0  0  0  0  0  0  0  0
    1.0602    4.0097    3.6282 C   0  0  1  0  0  0  0  0  0  0  0  0
   -0.4753    3.6467    3.7496 C   0  0  2  0  0  0  0  0  0  0  0  0
   -1.1823    4.4239    4.6971 O   0  0  0  0  0  0  0  0  0  0  0  0
   -0.6804    4.3144    6.0179 C   0  0  1  0  0  0  0  0  0  0  0  0
   -1.5495    3.4015    6.9002 C   0  0  0  0  0  0  0  0  0  0  0  0
    0.8401    3.9883    6.0558 C   0  0  2  0  0  0  0  0  0  0  0  0
    4.1098    7.8231    3.2346 H   0  0  0  0  0  0  0  0  0  0  0  0
    4.0714    6.2014    3.5644 H   0  0  0  0  0  0  0  0  0  0  0  0
    4.0492    7.3280    4.9654 H   0  0  0  0  0  0  0  0  0  0  0  0
    1.8016    8.1424    4.0362 H   0  0  0  0  0  0  0  0  0  0  0  0
    1.7984    6.8089    2.9218 H   0  0  0  0  0  0  0  0  0  0  0  0
    1.7071    6.6166    5.9745 H   0  0  0  0  0  0  0  0  0  0  0  0
    0.3726    6.4668    4.8933 H   0  0  0  0  0  0  0  0  0  0  0  0
    3.9914    4.6056    4.5948 H   0  0  0  0  0  0  0  0  0  0  0  0
    3.9833    5.3902    7.1245 H   0  0  0  0  0  0  0  0  0  0  0  0
    3.5104    3.0723    8.3207 H   0  0  0  0  0  0  0  0  0  0  0  0
    3.2417   -0.5817    7.5947 H   0  0  0  0  0  0  0  0  0  0  0  0
    1.7077    0.2656    7.6128 H   0  0  0  0  0  0  0  0  0  0  0  0
    3.1069    0.9384    8.4477 H   0  0  0  0  0  0  0  0  0  0  0  0
    0.6943    1.9138    6.5815 H   0  0  0  0  0  0  0  0  0  0  0  0
   -1.6999    0.9198    2.6215 H   0  0  0  0  0  0  0  0  0  0  0  0
    0.2189    0.9501    0.8917 H   0  0  0  0  0  0  0  0  0  0  0  0
    1.2687    4.6267    2.7614 H   0  0  0  0  0  0  0  0  0  0  0  0
   -0.9556    3.8357    2.7983 H   0  0  0  0  0  0  0  0  0  0  0  0
   -0.8225    5.3152    6.4168 H   0  0  0  0  0  0  0  0  0  0  0  0
   -1.1533    3.3660    7.9143 H   0  0  0  0  0  0  0  0  0  0  0  0
   -1.5912    2.3825    6.5232 H   0  0  0  0  0  0  0  0  0  0  0  0
   -2.5715    3.7736    6.9587 H   0  0  0  0  0  0  0  0  0  0  0  0
    1.1087    4.3521    7.0493 H   0  0  0  0  0  0  0  0  0  0  0  0
    2.0723    2.3071    1.4120 H   0  0  0  0  0  0  0  0  0  0  0  0
  1  2  1  0
  1 25  1  0
  1 26  1  0
  1 27  1  0
  2  3  1  0
  2 28  1  0
  2 29  1  0
  4  3  1  6
  3 30  1  0
  3 31  1  0
  4 19  1  0
  4 24  1  0
  4  5  1  0
  5 11  1  0
  5  6  1  0
  5 32  1  6
  6  7  2  0
  6 33  1  0
  7  8  1  0
  7 34  1  0
  8  9  1  1
  8 11  1  0
  8 12  1  0
  9 10  1  0
 10 35  1  0
 10 36  1  0
 10 37  1  0
 12 24  1  0
 12 13  1  0
 12 38  1  1
 13 18  2  0
 13 14  1  0
 14 20  1  0
 14 15  2  0
 15 16  1  0
 15 39  1  0
 16 17  2  0
 16 40  1  0
 17 18  1  0
 17 48  1  0
 18 19  1  0
 19 20  1  0
 19 41  1  6
 20 21  1  0
 20 42  1  6
 21 22  1  0
 22 23  1  0
 22 24  1  0
 22 43  1  1
 23 44  1  0
 23 45  1  0
 23 46  1  0
 24 47  1  1
M  CHG  1  17   1
M  END
>  <i_m_ct_stereo_status>  (205) 
1

>  <s_m_source_file>  (205) 
/var/tmp/pbs.5076255.sched01/tmpl83nofxy/76c90atywu.sdf

>  <i_m_source_file_index>  (205) 
23

>  <i_lp_mmshare_version>  (205) 
48012

>  <i_f3d_flags>  (205) 
0

>  <s_epik_input>  (205) 
W0NIM11bQ0gyXVtDSDJdW0NAXTEyW0NASF0zW0NIXT1bQ0hdW0NAQF0oTzMpKE9bQ0gzXSlbQ0BASF00YzVjNltDQEBIXShPW0NAQEhdKFtDSDNdKVtDQEhdMjQpW0NAQEhdMWM1bltjSF1bY0hdNg==

>  <s_epik_cmdline>  (205) 
J2VwaWtfcHl0aG9uJywgJy1waHQnLCAnMi4wJywgJy1waCcsICc3LjAnLCAnLXRuJywgJzgnLCAnLW1hJywgJzIwMCcsICctaW1hZScsICc8aW5maWxlLm1hZT4nLCAnLW9tYWUnLCAnPG91dGZpbGUubWFlPic=

>  <r_epik_Ionization_Penalty>  (205) 
1.10735

>  <r_epik_Ionization_Penalty_Charging>  (205) 
1.10735

>  <r_epik_Ionization_Penalty_Neutral>  (205) 
1.01431e-13

>  <r_epik_State_Penalty>  (205) 
1.16503

>  <r_epik_Charging_Adjusted_Penalty>  (205) 
2.27238

>  <i_epik_Tot_Q>  (205) 
1

>  <i_epik_Tot_abs_Q>  (205) 
1

>  <s_lp_Force_Field>  (205) 
OPLS3e

>  <r_lp_Energy>  (205) 
187.312

>  <b_lp_Chiralities_Consistent>  (205) 
1

>  <s_lp_Variant>  (205) 
71:0-2

>  <s_i_glide_gridfile>  (205) 
pfpi4k_grid

>  <i_i_glide_lignum>  (205) 
23

>  <i_i_glide_rotatable_bonds>  (205) 
3

>  <r_i_docking_score>  (205) 
-2.49346

>  <r_i_glide_ligand_efficiency>  (205) 
-0.103894

>  <r_i_glide_ligand_efficiency_sa>  (205) 
-0.299683

>  <r_i_glide_ligand_efficiency_ln>  (205) 
-0.5968

>  <r_i_glide_gscore>  (205) 
-2.49346

>  <r_i_glide_lipo>  (205) 
-0.0843058

>  <r_i_glide_hbond>  (205) 
-0.00381402

>  <r_i_glide_metal>  (205) 
-0

>  <r_i_glide_rewards>  (205) 
-1.18357

>  <r_i_glide_evdw>  (205) 
-15.6887

>  <r_i_glide_ecoul>  (205) 
-3.69115

>  <r_i_glide_erotb>  (205) 
0.176026

>  <r_i_glide_esite>  (205) 
-0.0596906

>  <r_i_glide_emodel>  (205) 
-21.3143

>  <r_i_glide_energy>  (205) 
-19.3798

>  <r_i_glide_einternal>  (205) 
3.80939

>  <r_i_glide_intrahb_reward>  (205) 
-0

>  <i_i_glide_confnum>  (205) 
4

>  <i_i_glide_posenum>  (205) 
25

>  <r_i_glide_eff_state_penalty>  (205) 
0

>  <ligand_id>  (205) 
71

>  <original_smiles>  (205) 
CCCC12C3C=CC(OC)(O3)C3c4c5ccnc4C1C5OC(C)C32

>  <smiles>  (205) 
[H]C1=C([H])C2(OC([H])([H])[H])OC1([H])C1(C([H])([H])C([H])([H])C([H])([H])[H])C3([H])c4c5c(c([H])c([H])[n+]4[H])C3([H])OC([H])(C([H])([H])[H])C1([H])C52[H]

$$$$
73:0:0
     RDKit          3D

 38 39  0  0  1  0  0  0  0  0999 V2000
    4.2153    0.5600   -3.3533 C   0  0  0  0  0  0  0  0  0  0  0  0
    4.2055   -0.6311   -4.2889 C   0  0  0  0  0  0  0  0  0  0  0  0
    3.2470   -0.2933   -5.4366 C   0  0  0  0  0  0  0  0  0  0  0  0
    4.0305   -1.9834   -3.5305 C   0  0  2  0  0  0  0  0  0  0  0  0
    2.6497   -2.0649   -2.8561 C   0  0  0  0  0  0  0  0  0  0  0  0
    2.4084   -3.3406   -2.0939 C   0  0  0  0  0  0  0  0  0  0  0  0
    3.5127   -3.5618   -1.0355 C   0  0  2  0  0  0  0  0  0  0  0  0
    4.8895   -3.6064   -1.7330 C   0  0  1  0  0  0  0  0  0  0  0  0
    5.1496   -2.2858   -2.4773 C   0  0  0  0  0  0  0  0  0  0  0  0
    5.8935   -3.7607   -0.7275 O   0  0  0  0  0  0  0  0  0  0  0  0
    5.7448   -4.9880   -0.0118 C   0  0  0  0  0  0  0  0  0  0  0  0
    4.4087   -4.9978    0.7136 C   0  0  0  0  0  0  0  0  0  0  0  0
    3.3224   -4.8091   -0.2613 N   0  0  1  0  0  0  0  0  0  0  0  0
    1.9975   -4.9444    0.3746 C   0  0  0  0  0  0  0  0  0  0  0  0
    3.2833    0.5369   -2.7976 H   0  0  0  0  0  0  0  0  0  0  0  0
    4.2590    1.5206   -3.8736 H   0  0  0  0  0  0  0  0  0  0  0  0
    5.0145    0.5056   -2.6458 H   0  0  0  0  0  0  0  0  0  0  0  0
    5.1236   -0.7033   -4.8169 H   0  0  0  0  0  0  0  0  0  0  0  0
    2.2047   -0.3653   -5.1334 H   0  0  0  0  0  0  0  0  0  0  0  0
    3.4362   -0.9813   -6.2584 H   0  0  0  0  0  0  0  0  0  0  0  0
    3.4304    0.7212   -5.8182 H   0  0  0  0  0  0  0  0  0  0  0  0
    4.0822   -2.7894   -4.2582 H   0  0  0  0  0  0  0  0  0  0  0  0
    2.5362   -1.2809   -2.1111 H   0  0  0  0  0  0  0  0  0  0  0  0
    1.8549   -1.9863   -3.5955 H   0  0  0  0  0  0  0  0  0  0  0  0
    1.4399   -3.2139   -1.6176 H   0  0  0  0  0  0  0  0  0  0  0  0
    2.3160   -4.1372   -2.8253 H   0  0  0  0  0  0  0  0  0  0  0  0
    3.5157   -2.7149   -0.3419 H   0  0  0  0  0  0  0  0  0  0  0  0
    4.9670   -4.4475   -2.4320 H   0  0  0  0  0  0  0  0  0  0  0  0
    6.1351   -2.3496   -2.9300 H   0  0  0  0  0  0  0  0  0  0  0  0
    5.2177   -1.5108   -1.7139 H   0  0  0  0  0  0  0  0  0  0  0  0
    5.7935   -5.8397   -0.6901 H   0  0  0  0  0  0  0  0  0  0  0  0
    6.5630   -5.0663    0.7031 H   0  0  0  0  0  0  0  0  0  0  0  0
    4.2932   -5.9592    1.2234 H   0  0  0  0  0  0  0  0  0  0  0  0
    4.3907   -4.2132    1.4657 H   0  0  0  0  0  0  0  0  0  0  0  0
    1.8092   -4.0858    1.0263 H   0  0  0  0  0  0  0  0  0  0  0  0
    1.9275   -5.8472    0.9825 H   0  0  0  0  0  0  0  0  0  0  0  0
    1.2095   -5.0290   -0.3771 H   0  0  0  0  0  0  0  0  0  0  0  0
    3.3976   -5.5438   -0.9589 H   0  0  0  0  0  0  0  0  0  0  0  0
  1  2  1  0
  1 15  1  0
  1 16  1  0
  1 17  1  0
  2  3  1  0
  2  4  1  0
  2 18  1  0
  3 19  1  0
  3 20  1  0
  3 21  1  0
  4  9  1  0
  4  5  1  0
  4 22  1  6
  5  6  1  0
  5 23  1  0
  5 24  1  0
  6  7  1  0
  6 25  1  0
  6 26  1  0
  7 13  1  0
  7  8  1  0
  7 27  1  1
  8  9  1  0
  8 10  1  0
  8 28  1  6
  9 29  1  0
  9 30  1  0
 10 11  1  0
 11 12  1  0
 11 31  1  0
 11 32  1  0
 12 13  1  0
 12 33  1  0
 12 34  1  0
 13 14  1  0
 13 38  1  6
 14 35  1  0
 14 36  1  0
 14 37  1  0
M  CHG  1  13   1
M  END
>  <i_m_ct_stereo_status>  (206) 
1

>  <s_m_source_file>  (206) 
/var/tmp/pbs.5076255.sched01/tmpl83nofxy/76c90atywu.sdf

>  <i_m_source_file_index>  (206) 
25

>  <i_lp_mmshare_version>  (206) 
48012

>  <i_f3d_flags>  (206) 
0

>  <s_epik_input>  (206) 
W0NIM11bQ0hdKFtDSDNdKVtDQEhdKFtDSDJdW0NIMl0xKVtDSDJdW0NASF0oW0NAQEhdMTIpT1tDSDJdW0NIMl1OMltDSDNd

>  <s_epik_cmdline>  (206) 
J2VwaWtfcHl0aG9uJywgJy1waHQnLCAnMi4wJywgJy1waCcsICc3LjAnLCAnLXRuJywgJzgnLCAnLW1hJywgJzIwMCcsICctaW1hZScsICc8aW5maWxlLm1hZT4nLCAnLW9tYWUnLCAnPG91dGZpbGUubWFlPic=

>  <r_epik_Ionization_Penalty>  (206) 
0.07744

>  <r_epik_Ionization_Penalty_Charging>  (206) 
0.07744

>  <r_epik_Ionization_Penalty_Neutral>  (206) 
1.44714e-15

>  <r_epik_State_Penalty>  (206) 
0.0683904

>  <r_epik_Charging_Adjusted_Penalty>  (206) 
0.14583

>  <i_epik_Tot_Q>  (206) 
1

>  <i_epik_Tot_abs_Q>  (206) 
1

>  <s_lp_Force_Field>  (206) 
OPLS3e

>  <r_lp_Energy>  (206) 
29.135

>  <b_lp_Chiralities_Consistent>  (206) 
1

>  <s_lp_Variant>  (206) 
73:0-1

>  <s_i_glide_gridfile>  (206) 
pfpi4k_grid

>  <i_i_glide_lignum>  (206) 
25

>  <i_i_glide_rotatable_bonds>  (206) 
1

>  <r_i_docking_score>  (206) 
-3.79037

>  <r_i_glide_ligand_efficiency>  (206) 
-0.270741

>  <r_i_glide_ligand_efficiency_sa>  (206) 
-0.652524

>  <r_i_glide_ligand_efficiency_ln>  (206) 
-1.04158

>  <r_i_glide_gscore>  (206) 
-3.79037

>  <r_i_glide_lipo>  (206) 
-0.799899

>  <r_i_glide_hbond>  (206) 
0

>  <r_i_glide_metal>  (206) 
-0

>  <r_i_glide_rewards>  (206) 
-2.05687

>  <r_i_glide_evdw>  (206) 
-6.77847

>  <r_i_glide_ecoul>  (206) 
-3.69118

>  <r_i_glide_erotb>  (206) 
0

>  <r_i_glide_esite>  (206) 
-0.0410003

>  <r_i_glide_emodel>  (206) 
-8.77203

>  <r_i_glide_energy>  (206) 
-10.4697

>  <r_i_glide_einternal>  (206) 
2.02349

>  <r_i_glide_intrahb_reward>  (206) 
-0

>  <i_i_glide_confnum>  (206) 
2

>  <i_i_glide_posenum>  (206) 
30

>  <r_i_glide_eff_state_penalty>  (206) 
0

>  <ligand_id>  (206) 
73

>  <original_smiles>  (206) 
CC(C)C1CCC2C(C1)OCCN2C

>  <smiles>  (206) 
[H]C([H])([H])C([H])(C([H])([H])[H])C1([H])C([H])([H])C([H])([H])C2([H])C([H])(OC([H])([H])C([H])([H])[N+]2([H])C([H])([H])[H])C1([H])[H]

$$$$
73:0:1
     RDKit          3D

 38 39  0  0  1  0  0  0  0  0999 V2000
    2.4782   -0.2242   -5.2943 C   0  0  0  0  0  0  0  0  0  0  0  0
    3.2261    0.1587   -4.0508 C   0  0  0  0  0  0  0  0  0  0  0  0
    4.1227    1.2929   -4.4719 C   0  0  0  0  0  0  0  0  0  0  0  0
    3.9526   -1.0485   -3.4143 C   0  0  2  0  0  0  0  0  0  0  0  0
    2.9197   -2.0888   -2.9631 C   0  0  0  0  0  0  0  0  0  0  0  0
    3.5409   -3.2583   -2.2142 C   0  0  0  0  0  0  0  0  0  0  0  0
    4.4050   -2.8059   -1.0146 C   0  0  2  0  0  0  0  0  0  0  0  0
    5.4789   -1.8562   -1.5390 C   0  0  1  0  0  0  0  0  0  0  0  0
    4.8083   -0.6439   -2.1736 C   0  0  0  0  0  0  0  0  0  0  0  0
    6.2181   -1.3787   -0.4343 O   0  0  0  0  0  0  0  0  0  0  0  0
    6.9369   -2.4106    0.2140 C   0  0  0  0  0  0  0  0  0  0  0  0
    5.9222   -3.4014    0.7875 C   0  0  0  0  0  0  0  0  0  0  0  0
    5.0550   -3.9322   -0.2927 N   0  0  1  0  0  0  0  0  0  0  0  0
    4.1090   -4.9772    0.1916 C   0  0  0  0  0  0  0  0  0  0  0  0
    3.1792   -0.6262   -6.0281 H   0  0  0  0  0  0  0  0  0  0  0  0
    2.0936    0.7445   -5.7207 H   0  0  0  0  0  0  0  0  0  0  0  0
    1.6037   -0.7668   -5.0683 H   0  0  0  0  0  0  0  0  0  0  0  0
    2.4825    0.5174   -3.3744 H   0  0  0  0  0  0  0  0  0  0  0  0
    4.8235    0.9034   -5.2003 H   0  0  0  0  0  0  0  0  0  0  0  0
    4.6275    1.6974   -3.6131 H   0  0  0  0  0  0  0  0  0  0  0  0
    3.5674    2.1117   -4.9446 H   0  0  0  0  0  0  0  0  0  0  0  0
    4.6166   -1.5258   -4.1543 H   0  0  0  0  0  0  0  0  0  0  0  0
    2.2146   -1.5712   -2.3247 H   0  0  0  0  0  0  0  0  0  0  0  0
    2.3237   -2.4959   -3.7795 H   0  0  0  0  0  0  0  0  0  0  0  0
    2.7048   -3.8463   -1.8570 H   0  0  0  0  0  0  0  0  0  0  0  0
    4.1346   -3.8598   -2.9024 H   0  0  0  0  0  0  0  0  0  0  0  0
    3.7729   -2.2423   -0.3228 H   0  0  0  0  0  0  0  0  0  0  0  0
    6.1749   -2.3310   -2.2356 H   0  0  0  0  0  0  0  0  0  0  0  0
    5.5990    0.0390   -2.4143 H   0  0  0  0  0  0  0  0  0  0  0  0
    4.2175   -0.1166   -1.4384 H   0  0  0  0  0  0  0  0  0  0  0  0
    7.6623   -2.8780   -0.4506 H   0  0  0  0  0  0  0  0  0  0  0  0
    7.4739   -1.9238    1.0243 H   0  0  0  0  0  0  0  0  0  0  0  0
    6.4668   -4.2148    1.2873 H   0  0  0  0  0  0  0  0  0  0  0  0
    5.3181   -2.8946    1.5397 H   0  0  0  0  0  0  0  0  0  0  0  0
    3.3362   -4.5444    0.8233 H   0  0  0  0  0  0  0  0  0  0  0  0
    4.6295   -5.7448    0.7611 H   0  0  0  0  0  0  0  0  0  0  0  0
    3.6212   -5.5025   -0.6287 H   0  0  0  0  0  0  0  0  0  0  0  0
    5.6856   -4.3705   -0.9433 H   0  0  0  0  0  0  0  0  0  0  0  0
  1  2  1  0
  1 15  1  0
  1 16  1  0
  1 17  1  0
  2  3  1  0
  2  4  1  0
  2 18  1  0
  3 19  1  0
  3 20  1  0
  3 21  1  0
  4  9  1  0
  4  5  1  0
  4 22  1  6
  5  6  1  0
  5 23  1  0
  5 24  1  0
  6  7  1  0
  6 25  1  0
  6 26  1  0
  7 13  1  0
  7  8  1  0
  7 27  1  1
  8  9  1  0
  8 10  1  0
  8 28  1  6
  9 29  1  0
  9 30  1  0
 10 11  1  0
 11 12  1  0
 11 31  1  0
 11 32  1  0
 12 13  1  0
 12 33  1  0
 12 34  1  0
 13 14  1  0
 13 38  1  6
 14 35  1  0
 14 36  1  0
 14 37  1  0
M  CHG  1  13   1
M  END
>  <i_m_ct_stereo_status>  (207) 
1

>  <s_m_source_file>  (207) 
/var/tmp/pbs.5076255.sched01/tmpl83nofxy/76c90atywu.sdf

>  <i_m_source_file_index>  (207) 
25

>  <i_lp_mmshare_version>  (207) 
48012

>  <i_f3d_flags>  (207) 
0

>  <s_epik_input>  (207) 
W0NIM11bQ0hdKFtDSDNdKVtDQEhdKFtDSDJdW0NIMl0xKVtDSDJdW0NASF0oW0NAQEhdMTIpT1tDSDJdW0NIMl1OMltDSDNd

>  <s_epik_cmdline>  (207) 
J2VwaWtfcHl0aG9uJywgJy1waHQnLCAnMi4wJywgJy1waCcsICc3LjAnLCAnLXRuJywgJzgnLCAnLW1hJywgJzIwMCcsICctaW1hZScsICc8aW5maWxlLm1hZT4nLCAnLW9tYWUnLCAnPG91dGZpbGUubWFlPic=

>  <r_epik_Ionization_Penalty>  (207) 
0.07744

>  <r_epik_Ionization_Penalty_Charging>  (207) 
0.07744

>  <r_epik_Ionization_Penalty_Neutral>  (207) 
1.44714e-15

>  <r_epik_State_Penalty>  (207) 
0.0683904

>  <r_epik_Charging_Adjusted_Penalty>  (207) 
0.14583

>  <i_epik_Tot_Q>  (207) 
1

>  <i_epik_Tot_abs_Q>  (207) 
1

>  <s_lp_Force_Field>  (207) 
OPLS3e

>  <r_lp_Energy>  (207) 
29.135

>  <b_lp_Chiralities_Consistent>  (207) 
1

>  <s_lp_Variant>  (207) 
73:0-1

>  <s_i_glide_gridfile>  (207) 
pfpi4k_grid

>  <i_i_glide_lignum>  (207) 
25

>  <i_i_glide_rotatable_bonds>  (207) 
1

>  <r_i_docking_score>  (207) 
-3.16456

>  <r_i_glide_ligand_efficiency>  (207) 
-0.22604

>  <r_i_glide_ligand_efficiency_sa>  (207) 
-0.544789

>  <r_i_glide_ligand_efficiency_ln>  (207) 
-0.86961

>  <r_i_glide_gscore>  (207) 
-3.16456

>  <r_i_glide_lipo>  (207) 
-0.369088

>  <r_i_glide_hbond>  (207) 
-0.0798051

>  <r_i_glide_metal>  (207) 
-0

>  <r_i_glide_rewards>  (207) 
-2.05687

>  <r_i_glide_evdw>  (207) 
-7.80125

>  <r_i_glide_ecoul>  (207) 
-1.79154

>  <r_i_glide_erotb>  (207) 
0

>  <r_i_glide_esite>  (207) 
0

>  <r_i_glide_emodel>  (207) 
-8.67322

>  <r_i_glide_energy>  (207) 
-9.59278

>  <r_i_glide_einternal>  (207) 
0.203977

>  <r_i_glide_intrahb_reward>  (207) 
-0

>  <i_i_glide_confnum>  (207) 
2

>  <i_i_glide_posenum>  (207) 
22

>  <r_i_glide_eff_state_penalty>  (207) 
0

>  <ligand_id>  (207) 
73

>  <original_smiles>  (207) 
CC(C)C1CCC2C(C1)OCCN2C

>  <smiles>  (207) 
[H]C([H])([H])C([H])(C([H])([H])[H])C1([H])C([H])([H])C([H])([H])C2([H])C([H])(OC([H])([H])C([H])([H])[N+]2([H])C([H])([H])[H])C1([H])[H]

$$$$
73:1:0
     RDKit          3D

 37 38  0  0  1  0  0  0  0  0999 V2000
    2.4916   -0.2598   -5.0639 C   0  0  0  0  0  0  0  0  0  0  0  0
    3.3521    0.1033   -3.8786 C   0  0  0  0  0  0  0  0  0  0  0  0
    4.1848    1.2663   -4.3969 C   0  0  0  0  0  0  0  0  0  0  0  0
    4.1954   -1.0843   -3.3081 C   0  0  2  0  0  0  0  0  0  0  0  0
    3.3148   -2.3027   -2.9561 C   0  0  0  0  0  0  0  0  0  0  0  0
    4.1028   -3.4594   -2.3345 C   0  0  0  0  0  0  0  0  0  0  0  0
    4.8919   -3.0436   -1.0835 C   0  0  2  0  0  0  0  0  0  0  0  0
    5.8035   -1.8867   -1.4765 C   0  0  1  0  0  0  0  0  0  0  0  0
    4.9905   -0.7024   -2.0258 C   0  0  0  0  0  0  0  0  0  0  0  0
    6.4921   -1.4384   -0.3260 O   0  0  0  0  0  0  0  0  0  0  0  0
    7.2715   -2.4415    0.2825 C   0  0  0  0  0  0  0  0  0  0  0  0
    6.3837   -3.6112    0.6797 C   0  0  0  0  0  0  0  0  0  0  0  0
    5.6515   -4.1284   -0.4630 N   0  0  0  0  0  0  0  0  0  0  0  0
    4.8558   -5.2881   -0.1169 C   0  0  0  0  0  0  0  0  0  0  0  0
    3.1530   -0.5954   -5.8603 H   0  0  0  0  0  0  0  0  0  0  0  0
    1.9051    0.5734   -5.4554 H   0  0  0  0  0  0  0  0  0  0  0  0
    1.8175   -1.0417   -4.7526 H   0  0  0  0  0  0  0  0  0  0  0  0
    2.6725    0.4167   -3.0993 H   0  0  0  0  0  0  0  0  0  0  0  0
    4.7912    0.9209   -5.2135 H   0  0  0  0  0  0  0  0  0  0  0  0
    4.7694    1.7386   -3.6293 H   0  0  0  0  0  0  0  0  0  0  0  0
    3.5201    2.0276   -4.8218 H   0  0  0  0  0  0  0  0  0  0  0  0
    4.9111   -1.4220   -4.0580 H   0  0  0  0  0  0  0  0  0  0  0  0
    2.5179   -1.9911   -2.2778 H   0  0  0  0  0  0  0  0  0  0  0  0
    2.8282   -2.7254   -3.8418 H   0  0  0  0  0  0  0  0  0  0  0  0
    3.3714   -4.2045   -2.0460 H   0  0  0  0  0  0  0  0  0  0  0  0
    4.7741   -3.8906   -3.0805 H   0  0  0  0  0  0  0  0  0  0  0  0
    4.1681   -2.6778   -0.3620 H   0  0  0  0  0  0  0  0  0  0  0  0
    6.5470   -2.2027   -2.2056 H   0  0  0  0  0  0  0  0  0  0  0  0
    5.6816    0.1082   -2.2239 H   0  0  0  0  0  0  0  0  0  0  0  0
    4.2994   -0.3467   -1.2619 H   0  0  0  0  0  0  0  0  0  0  0  0
    8.0790   -2.7555   -0.3729 H   0  0  0  0  0  0  0  0  0  0  0  0
    7.7024   -1.9933    1.1671 H   0  0  0  0  0  0  0  0  0  0  0  0
    6.9835   -4.4037    1.1183 H   0  0  0  0  0  0  0  0  0  0  0  0
    5.6758   -3.2961    1.4347 H   0  0  0  0  0  0  0  0  0  0  0  0
    5.4630   -6.0420    0.3813 H   0  0  0  0  0  0  0  0  0  0  0  0
    4.4532   -5.7636   -1.0131 H   0  0  0  0  0  0  0  0  0  0  0  0
    4.0276   -5.0196    0.5387 H   0  0  0  0  0  0  0  0  0  0  0  0
  1  2  1  0
  1 15  1  0
  1 16  1  0
  1 17  1  0
  2  3  1  0
  2  4  1  0
  2 18  1  0
  3 19  1  0
  3 20  1  0
  3 21  1  0
  4  9  1  0
  4  5  1  0
  4 22  1  6
  5  6  1  0
  5 23  1  0
  5 24  1  0
  6  7  1  0
  6 25  1  0
  6 26  1  0
  7 13  1  0
  7  8  1  0
  7 27  1  1
  8  9  1  0
  8 10  1  0
  8 28  1  6
  9 29  1  0
  9 30  1  0
 10 11  1  0
 11 12  1  0
 11 31  1  0
 11 32  1  0
 12 13  1  0
 12 33  1  0
 12 34  1  0
 13 14  1  0
 14 35  1  0
 14 36  1  0
 14 37  1  0
M  END
>  <i_m_ct_stereo_status>  (208) 
1

>  <s_m_source_file>  (208) 
/var/tmp/pbs.5076255.sched01/tmpl83nofxy/76c90atywu.sdf

>  <i_m_source_file_index>  (208) 
26

>  <i_lp_mmshare_version>  (208) 
48012

>  <i_f3d_flags>  (208) 
0

>  <s_epik_input>  (208) 
W0NIM11bQ0hdKFtDSDNdKVtDQEhdKFtDSDJdW0NIMl0xKVtDSDJdW0NASF0oW0NAQEhdMTIpT1tDSDJdW0NIMl1OMltDSDNd

>  <s_epik_cmdline>  (208) 
J2VwaWtfcHl0aG9uJywgJy1waHQnLCAnMi4wJywgJy1waCcsICc3LjAnLCAnLXRuJywgJzgnLCAnLW1hJywgJzIwMCcsICctaW1hZScsICc8aW5maWxlLm1hZT4nLCAnLW9tYWUnLCAnPG91dGZpbGUubWFlPic=

>  <r_epik_Ionization_Penalty>  (208) 
1.2439

>  <r_epik_Ionization_Penalty_Charging>  (208) 
0

>  <r_epik_Ionization_Penalty_Neutral>  (208) 
1.2439

>  <r_epik_State_Penalty>  (208) 
1.3131

>  <r_epik_Charging_Adjusted_Penalty>  (208) 
1.3131

>  <i_epik_Tot_Q>  (208) 
0

>  <i_epik_Tot_abs_Q>  (208) 
0

>  <s_lp_Force_Field>  (208) 
OPLS3e

>  <r_lp_Energy>  (208) 
24.9808

>  <b_lp_Chiralities_Consistent>  (208) 
1

>  <s_lp_Variant>  (208) 
73:0-2

>  <s_i_glide_gridfile>  (208) 
pfpi4k_grid

>  <i_i_glide_lignum>  (208) 
26

>  <i_i_glide_rotatable_bonds>  (208) 
1

>  <r_i_docking_score>  (208) 
-3.40679

>  <r_i_glide_ligand_efficiency>  (208) 
-0.243342

>  <r_i_glide_ligand_efficiency_sa>  (208) 
-0.58649

>  <r_i_glide_ligand_efficiency_ln>  (208) 
-0.936175

>  <r_i_glide_gscore>  (208) 
-3.40679

>  <r_i_glide_lipo>  (208) 
-0.484878

>  <r_i_glide_hbond>  (208) 
-0.110635

>  <r_i_glide_metal>  (208) 
-0

>  <r_i_glide_rewards>  (208) 
-2.06375

>  <r_i_glide_evdw>  (208) 
-10.2459

>  <r_i_glide_ecoul>  (208) 
-1.56826

>  <r_i_glide_erotb>  (208) 
0

>  <r_i_glide_esite>  (208) 
0

>  <r_i_glide_emodel>  (208) 
-12.3859

>  <r_i_glide_energy>  (208) 
-11.8142

>  <r_i_glide_einternal>  (208) 
0.0611141

>  <r_i_glide_intrahb_reward>  (208) 
-0

>  <i_i_glide_confnum>  (208) 
2

>  <i_i_glide_posenum>  (208) 
13

>  <r_i_glide_eff_state_penalty>  (208) 
0

>  <ligand_id>  (208) 
73

>  <original_smiles>  (208) 
CC(C)C1CCC2C(C1)OCCN2C

>  <smiles>  (208) 
[H]C([H])([H])N1C([H])([H])C([H])([H])OC2([H])C([H])([H])C([H])(C([H])(C([H])([H])[H])C([H])([H])[H])C([H])([H])C([H])([H])C12[H]

$$$$
73:1:1
     RDKit          3D

 37 38  0  0  1  0  0  0  0  0999 V2000
    3.8397    1.2938   -5.3392 C   0  0  0  0  0  0  0  0  0  0  0  0
    3.3493   -0.1309   -5.1605 C   0  0  0  0  0  0  0  0  0  0  0  0
    1.9055    0.0317   -4.8057 C   0  0  0  0  0  0  0  0  0  0  0  0
    4.1457   -0.9959   -4.1459 C   0  0  2  0  0  0  0  0  0  0  0  0
    3.6575   -2.4600   -4.0641 C   0  0  0  0  0  0  0  0  0  0  0  0
    4.5069   -3.3122   -3.1116 C   0  0  0  0  0  0  0  0  0  0  0  0
    4.5312   -2.7301   -1.6912 C   0  0  2  0  0  0  0  0  0  0  0  0
    5.1189   -1.3128   -1.7617 C   0  0  1  0  0  0  0  0  0  0  0  0
    4.2892   -0.4320   -2.7001 C   0  0  0  0  0  0  0  0  0  0  0  0
    5.1028   -0.7075   -0.4654 O   0  0  0  0  0  0  0  0  0  0  0  0
    5.8353   -1.4708    0.4918 C   0  0  0  0  0  0  0  0  0  0  0  0
    5.2595   -2.8871    0.5881 C   0  0  0  0  0  0  0  0  0  0  0  0
    5.2607   -3.5545   -0.7178 N   0  0  0  0  0  0  0  0  0  0  0  0
    4.7640   -4.9151   -0.6069 C   0  0  0  0  0  0  0  0  0  0  0  0
    3.9848    1.7747   -4.3551 H   0  0  0  0  0  0  0  0  0  0  0  0
    3.1330    1.8587   -5.9035 H   0  0  0  0  0  0  0  0  0  0  0  0
    4.7736    1.2987   -5.8916 H   0  0  0  0  0  0  0  0  0  0  0  0
    3.4180   -0.6085   -6.1395 H   0  0  0  0  0  0  0  0  0  0  0  0
    1.8532    0.5573   -3.8521 H   0  0  0  0  0  0  0  0  0  0  0  0
    1.4821   -0.9721   -4.7655 H   0  0  0  0  0  0  0  0  0  0  0  0
    1.3515    0.6348   -5.5248 H   0  0  0  0  0  0  0  0  0  0  0  0
    5.1184   -1.0387   -4.6150 H   0  0  0  0  0  0  0  0  0  0  0  0
    2.6313   -2.5053   -3.7051 H   0  0  0  0  0  0  0  0  0  0  0  0
    3.6547   -2.9304   -5.0403 H   0  0  0  0  0  0  0  0  0  0  0  0
    4.0022   -4.2677   -3.1097 H   0  0  0  0  0  0  0  0  0  0  0  0
    5.5266   -3.4553   -3.4892 H   0  0  0  0  0  0  0  0  0  0  0  0
    3.4936   -2.6463   -1.3471 H   0  0  0  0  0  0  0  0  0  0  0  0
    6.1588   -1.3793   -2.0918 H   0  0  0  0  0  0  0  0  0  0  0  0
    4.7618    0.5441   -2.6983 H   0  0  0  0  0  0  0  0  0  0  0  0
    3.2945   -0.3120   -2.2552 H   0  0  0  0  0  0  0  0  0  0  0  0
    6.8955   -1.5109    0.2264 H   0  0  0  0  0  0  0  0  0  0  0  0
    5.7428   -0.9709    1.4469 H   0  0  0  0  0  0  0  0  0  0  0  0
    5.8246   -3.4751    1.3033 H   0  0  0  0  0  0  0  0  0  0  0  0
    4.2260   -2.8341    0.9569 H   0  0  0  0  0  0  0  0  0  0  0  0
    5.3053   -5.4619    0.1655 H   0  0  0  0  0  0  0  0  0  0  0  0
    4.9180   -5.4597   -1.5389 H   0  0  0  0  0  0  0  0  0  0  0  0
    3.6994   -4.9347   -0.3620 H   0  0  0  0  0  0  0  0  0  0  0  0
  1  2  1  0
  1 15  1  0
  1 16  1  0
  1 17  1  0
  2  3  1  0
  2  4  1  0
  2 18  1  0
  3 19  1  0
  3 20  1  0
  3 21  1  0
  4  9  1  0
  4  5  1  0
  4 22  1  6
  5  6  1  0
  5 23  1  0
  5 24  1  0
  6  7  1  0
  6 25  1  0
  6 26  1  0
  7 13  1  0
  7  8  1  0
  7 27  1  1
  8  9  1  0
  8 10  1  0
  8 28  1  6
  9 29  1  0
  9 30  1  0
 10 11  1  0
 11 12  1  0
 11 31  1  0
 11 32  1  0
 12 13  1  0
 12 33  1  0
 12 34  1  0
 13 14  1  0
 14 35  1  0
 14 36  1  0
 14 37  1  0
M  END
>  <i_m_ct_stereo_status>  (209) 
1

>  <s_m_source_file>  (209) 
/var/tmp/pbs.5076255.sched01/tmpl83nofxy/76c90atywu.sdf

>  <i_m_source_file_index>  (209) 
26

>  <i_lp_mmshare_version>  (209) 
48012

>  <i_f3d_flags>  (209) 
0

>  <s_epik_input>  (209) 
W0NIM11bQ0hdKFtDSDNdKVtDQEhdKFtDSDJdW0NIMl0xKVtDSDJdW0NASF0oW0NAQEhdMTIpT1tDSDJdW0NIMl1OMltDSDNd

>  <s_epik_cmdline>  (209) 
J2VwaWtfcHl0aG9uJywgJy1waHQnLCAnMi4wJywgJy1waCcsICc3LjAnLCAnLXRuJywgJzgnLCAnLW1hJywgJzIwMCcsICctaW1hZScsICc8aW5maWxlLm1hZT4nLCAnLW9tYWUnLCAnPG91dGZpbGUubWFlPic=

>  <r_epik_Ionization_Penalty>  (209) 
1.2439

>  <r_epik_Ionization_Penalty_Charging>  (209) 
0

>  <r_epik_Ionization_Penalty_Neutral>  (209) 
1.2439

>  <r_epik_State_Penalty>  (209) 
1.3131

>  <r_epik_Charging_Adjusted_Penalty>  (209) 
1.3131

>  <i_epik_Tot_Q>  (209) 
0

>  <i_epik_Tot_abs_Q>  (209) 
0

>  <s_lp_Force_Field>  (209) 
OPLS3e

>  <r_lp_Energy>  (209) 
24.9808

>  <b_lp_Chiralities_Consistent>  (209) 
1

>  <s_lp_Variant>  (209) 
73:0-2

>  <s_i_glide_gridfile>  (209) 
pfpi4k_grid

>  <i_i_glide_lignum>  (209) 
26

>  <i_i_glide_rotatable_bonds>  (209) 
1

>  <r_i_docking_score>  (209) 
-2.9297

>  <r_i_glide_ligand_efficiency>  (209) 
-0.209264

>  <r_i_glide_ligand_efficiency_sa>  (209) 
-0.504356

>  <r_i_glide_ligand_efficiency_ln>  (209) 
-0.80507

>  <r_i_glide_gscore>  (209) 
-2.9297

>  <r_i_glide_lipo>  (209) 
-0.596646

>  <r_i_glide_hbond>  (209) 
0

>  <r_i_glide_metal>  (209) 
-0

>  <r_i_glide_rewards>  (209) 
-2.06375

>  <r_i_glide_evdw>  (209) 
-6.19104

>  <r_i_glide_ecoul>  (209) 
0.268316

>  <r_i_glide_erotb>  (209) 
0

>  <r_i_glide_esite>  (209) 
0

>  <r_i_glide_emodel>  (209) 
-4.73567

>  <r_i_glide_energy>  (209) 
-5.92272

>  <r_i_glide_einternal>  (209) 
2.19159

>  <r_i_glide_intrahb_reward>  (209) 
-0

>  <i_i_glide_confnum>  (209) 
2

>  <i_i_glide_posenum>  (209) 
16

>  <r_i_glide_eff_state_penalty>  (209) 
0

>  <ligand_id>  (209) 
73

>  <original_smiles>  (209) 
CC(C)C1CCC2C(C1)OCCN2C

>  <smiles>  (209) 
[H]C([H])([H])N1C([H])([H])C([H])([H])OC2([H])C([H])([H])C([H])(C([H])(C([H])([H])[H])C([H])([H])[H])C([H])([H])C([H])([H])C12[H]

$$$$
74:0:0
     RDKit          3D

 27 30  0  0  1  0  0  0  0  0999 V2000
    5.1923   -1.4713   -0.3529 C   0  0  0  0  0  0  0  0  0  0  0  0
    5.5946   -2.9030   -0.6974 C   0  0  1  0  0  0  0  0  0  0  0  0
    4.2450   -3.6045   -0.5095 C   0  0  0  0  0  0  0  0  0  0  0  0
    3.3347   -2.7193   -1.3627 C   0  0  1  0  0  0  0  0  0  0  0  0
    3.8890   -1.2657   -1.1434 C   0  0  2  0  0  0  0  0  0  0  0  0
    4.2096   -0.5079   -2.4610 C   0  0  0  0  0  0  0  0  0  0  0  0
    4.4135   -1.4799   -3.6075 C   0  0  2  0  0  0  0  0  0  0  0  0
    3.1333   -2.2299   -3.9246 C   0  0  0  0  0  0  0  0  0  0  0  0
    3.5629   -3.1556   -2.8101 C   0  0  1  0  0  0  0  0  0  0  0  0
    4.9988   -2.8651   -3.2421 C   0  0  2  0  0  0  0  0  0  0  0  0
    6.1044   -3.0155   -2.1684 C   0  0  0  0  0  0  0  0  0  0  0  0
    5.9764   -0.7459   -0.5732 H   0  0  0  0  0  0  0  0  0  0  0  0
    4.9869   -1.3938    0.7158 H   0  0  0  0  0  0  0  0  0  0  0  0
    6.3449   -3.2790    0.0017 H   0  0  0  0  0  0  0  0  0  0  0  0
    4.2579   -4.6462   -0.8297 H   0  0  0  0  0  0  0  0  0  0  0  0
    3.9283   -3.5793    0.5338 H   0  0  0  0  0  0  0  0  0  0  0  0
    2.2847   -2.8138   -1.1007 H   0  0  0  0  0  0  0  0  0  0  0  0
    3.1960   -0.6785   -0.5373 H   0  0  0  0  0  0  0  0  0  0  0  0
    3.3809    0.1490   -2.7222 H   0  0  0  0  0  0  0  0  0  0  0  0
    5.0760    0.1401   -2.3510 H   0  0  0  0  0  0  0  0  0  0  0  0
    4.8504   -1.0422   -4.5000 H   0  0  0  0  0  0  0  0  0  0  0  0
    2.2136   -1.6908   -3.7394 H   0  0  0  0  0  0  0  0  0  0  0  0
    3.1261   -2.7215   -4.8999 H   0  0  0  0  0  0  0  0  0  0  0  0
    3.2899   -4.1723   -3.0443 H   0  0  0  0  0  0  0  0  0  0  0  0
    5.2386   -3.4458   -4.1426 H   0  0  0  0  0  0  0  0  0  0  0  0
    6.9221   -2.3111   -2.3261 H   0  0  0  0  0  0  0  0  0  0  0  0
    6.5528   -3.9888   -2.2876 H   0  0  0  0  0  0  0  0  0  0  0  0
  1  5  1  0
  1  2  1  0
  1 12  1  0
  1 13  1  0
  2 11  1  0
  2  3  1  0
  2 14  1  1
  3  4  1  0
  3 15  1  0
  3 16  1  0
  4  9  1  0
  4  5  1  0
  4 17  1  1
  5  6  1  0
  5 18  1  1
  6  7  1  0
  6 19  1  0
  6 20  1  0
  7 10  1  0
  7  8  1  0
  7 21  1  6
  8  9  1  0
  8 22  1  0
  8 23  1  0
  9 10  1  0
  9 24  1  6
 10 11  1  0
 10 25  1  6
 11 26  1  0
 11 27  1  0
M  END
>  <i_m_ct_stereo_status>  (210) 
1

>  <s_m_source_file>  (210) 
/var/tmp/pbs.5076255.sched01/tmpl83nofxy/76c90atywu.sdf

>  <i_m_source_file_index>  (210) 
27

>  <i_lp_mmshare_version>  (210) 
48012

>  <i_f3d_flags>  (210) 
0

>  <s_epik_input>  (210) 
W0NASF0xMltDSDJdW0NAQEhdM1tDQEhdKFtDSDJdMSlbQ0BASF00W0NASF0oW0NIMl0yKVtDQEhdKFtDSDJdMylbQ0gyXTQ=

>  <s_epik_cmdline>  (210) 
J2VwaWtfcHl0aG9uJywgJy1waHQnLCAnMi4wJywgJy1waCcsICc3LjAnLCAnLXRuJywgJzgnLCAnLW1hJywgJzIwMCcsICctaW1hZScsICc8aW5maWxlLm1hZT4nLCAnLW9tYWUnLCAnPG91dGZpbGUubWFlPic=

>  <r_lp_tautomer_probability>  (210) 
1

>  <r_epik_Ionization_Penalty>  (210) 
0

>  <r_epik_Ionization_Penalty_Charging>  (210) 
0

>  <r_epik_Ionization_Penalty_Neutral>  (210) 
0

>  <r_epik_State_Penalty>  (210) 
-0

>  <r_epik_Charging_Adjusted_Penalty>  (210) 
0

>  <i_epik_Tot_Q>  (210) 
0

>  <i_epik_Tot_abs_Q>  (210) 
0

>  <s_lp_Force_Field>  (210) 
OPLS3e

>  <r_lp_Energy>  (210) 
48.8864

>  <b_lp_Chiralities_Consistent>  (210) 
1

>  <s_lp_Variant>  (210) 
74:0-1

>  <s_i_glide_gridfile>  (210) 
pfpi4k_grid

>  <i_i_glide_lignum>  (210) 
27

>  <i_i_glide_rotatable_bonds>  (210) 
0

>  <r_i_docking_score>  (210) 
-3.67754

>  <r_i_glide_ligand_efficiency>  (210) 
-0.334322

>  <r_i_glide_ligand_efficiency_sa>  (210) 
-0.743525

>  <r_i_glide_ligand_efficiency_ln>  (210) 
-1.0823

>  <r_i_glide_gscore>  (210) 
-3.67754

>  <r_i_glide_lipo>  (210) 
-0.667004

>  <r_i_glide_hbond>  (210) 
0

>  <r_i_glide_metal>  (210) 
-0

>  <r_i_glide_rewards>  (210) 
-2.25

>  <r_i_glide_evdw>  (210) 
-13.8149

>  <r_i_glide_ecoul>  (210) 
-0.465254

>  <r_i_glide_erotb>  (210) 
0

>  <r_i_glide_esite>  (210) 
0

>  <r_i_glide_emodel>  (210) 
-17.9971

>  <r_i_glide_energy>  (210) 
-14.2802

>  <r_i_glide_einternal>  (210) 
0

>  <r_i_glide_intrahb_reward>  (210) 
-0

>  <i_i_glide_confnum>  (210) 
1

>  <i_i_glide_posenum>  (210) 
5

>  <r_i_glide_eff_state_penalty>  (210) 
0

>  <ligand_id>  (210) 
74

>  <original_smiles>  (210) 
C1C2CC3C1CC1CC3C1C2

>  <smiles>  (210) 
[H]C1([H])C2([H])C([H])([H])C3([H])C1([H])C([H])([H])C1([H])C([H])([H])C3([H])C1([H])C2([H])[H]

$$$$
74:0:1
     RDKit          3D

 27 30  0  0  1  0  0  0  0  0999 V2000
    5.5817   -0.9488    0.2080 C   0  0  0  0  0  0  0  0  0  0  0  0
    6.1441   -2.3615    0.3057 C   0  0  1  0  0  0  0  0  0  0  0  0
    4.9145   -3.0786    0.8741 C   0  0  0  0  0  0  0  0  0  0  0  0
    3.8334   -2.6300   -0.1137 C   0  0  1  0  0  0  0  0  0  0  0  0
    4.2075   -1.1380   -0.4452 C   0  0  2  0  0  0  0  0  0  0  0  0
    4.3154   -0.8368   -1.9714 C   0  0  0  0  0  0  0  0  0  0  0  0
    4.5741   -2.1188   -2.7473 C   0  0  2  0  0  0  0  0  0  0  0  0
    3.3789   -3.0637   -2.6732 C   0  0  0  0  0  0  0  0  0  0  0  0
    4.0053   -3.5112   -1.3499 C   0  0  1  0  0  0  0  0  0  0  0  0
    5.3584   -3.2494   -2.0280 C   0  0  2  0  0  0  0  0  0  0  0  0
    6.5549   -2.9392   -1.0897 C   0  0  0  0  0  0  0  0  0  0  0  0
    6.2345   -0.2616   -0.3167 H   0  0  0  0  0  0  0  0  0  0  0  0
    5.4551   -0.5347    1.2073 H   0  0  0  0  0  0  0  0  0  0  0  0
    6.9838   -2.4028    1.0008 H   0  0  0  0  0  0  0  0  0  0  0  0
    5.0343   -4.1611    0.9190 H   0  0  0  0  0  0  0  0  0  0  0  0
    4.6820   -2.7299    1.8812 H   0  0  0  0  0  0  0  0  0  0  0  0
    2.8247   -2.7243    0.2904 H   0  0  0  0  0  0  0  0  0  0  0  0
    3.4938   -0.4558    0.0170 H   0  0  0  0  0  0  0  0  0  0  0  0
    3.3799   -0.3945   -2.3208 H   0  0  0  0  0  0  0  0  0  0  0  0
    5.0845   -0.0999   -2.1951 H   0  0  0  0  0  0  0  0  0  0  0  0
    4.8944   -1.9598   -3.7788 H   0  0  0  0  0  0  0  0  0  0  0  0
    2.4026   -2.5890   -2.5625 H   0  0  0  0  0  0  0  0  0  0  0  0
    3.3699   -3.8417   -3.4384 H   0  0  0  0  0  0  0  0  0  0  0  0
    3.8512   -4.5716   -1.1485 H   0  0  0  0  0  0  0  0  0  0  0  0
    5.6072   -4.0358   -2.7471 H   0  0  0  0  0  0  0  0  0  0  0  0
    7.2616   -2.2682   -1.5750 H   0  0  0  0  0  0  0  0  0  0  0  0
    7.1138   -3.8539   -0.9130 H   0  0  0  0  0  0  0  0  0  0  0  0
  1  5  1  0
  1  2  1  0
  1 12  1  0
  1 13  1  0
  2 11  1  0
  2  3  1  0
  2 14  1  1
  3  4  1  0
  3 15  1  0
  3 16  1  0
  4  9  1  0
  4  5  1  0
  4 17  1  1
  5  6  1  0
  5 18  1  1
  6  7  1  0
  6 19  1  0
  6 20  1  0
  7 10  1  0
  7  8  1  0
  7 21  1  6
  8  9  1  0
  8 22  1  0
  8 23  1  0
  9 10  1  0
  9 24  1  1
 10 11  1  0
 10 25  1  6
 11 26  1  0
 11 27  1  0
M  END
>  <i_m_ct_stereo_status>  (211) 
1

>  <s_m_source_file>  (211) 
/var/tmp/pbs.5076255.sched01/tmpl83nofxy/76c90atywu.sdf

>  <i_m_source_file_index>  (211) 
27

>  <i_lp_mmshare_version>  (211) 
48012

>  <i_f3d_flags>  (211) 
0

>  <s_epik_input>  (211) 
W0NASF0xMltDSDJdW0NAQEhdM1tDQEhdKFtDSDJdMSlbQ0BASF00W0NASF0oW0NIMl0yKVtDQEhdKFtDSDJdMylbQ0gyXTQ=

>  <s_epik_cmdline>  (211) 
J2VwaWtfcHl0aG9uJywgJy1waHQnLCAnMi4wJywgJy1waCcsICc3LjAnLCAnLXRuJywgJzgnLCAnLW1hJywgJzIwMCcsICctaW1hZScsICc8aW5maWxlLm1hZT4nLCAnLW9tYWUnLCAnPG91dGZpbGUubWFlPic=

>  <r_lp_tautomer_probability>  (211) 
1

>  <r_epik_Ionization_Penalty>  (211) 
0

>  <r_epik_Ionization_Penalty_Charging>  (211) 
0

>  <r_epik_Ionization_Penalty_Neutral>  (211) 
0

>  <r_epik_State_Penalty>  (211) 
-0

>  <r_epik_Charging_Adjusted_Penalty>  (211) 
0

>  <i_epik_Tot_Q>  (211) 
0

>  <i_epik_Tot_abs_Q>  (211) 
0

>  <s_lp_Force_Field>  (211) 
OPLS3e

>  <r_lp_Energy>  (211) 
48.8864

>  <b_lp_Chiralities_Consistent>  (211) 
1

>  <s_lp_Variant>  (211) 
74:0-1

>  <s_i_glide_gridfile>  (211) 
pfpi4k_grid

>  <i_i_glide_lignum>  (211) 
27

>  <i_i_glide_rotatable_bonds>  (211) 
0

>  <r_i_docking_score>  (211) 
-3.49731

>  <r_i_glide_ligand_efficiency>  (211) 
-0.317938

>  <r_i_glide_ligand_efficiency_sa>  (211) 
-0.707087

>  <r_i_glide_ligand_efficiency_ln>  (211) 
-1.02926

>  <r_i_glide_gscore>  (211) 
-3.49731

>  <r_i_glide_lipo>  (211) 
-0.387687

>  <r_i_glide_hbond>  (211) 
0

>  <r_i_glide_metal>  (211) 
-0

>  <r_i_glide_rewards>  (211) 
-2.25

>  <r_i_glide_evdw>  (211) 
-17.4761

>  <r_i_glide_ecoul>  (211) 
0.0945394

>  <r_i_glide_erotb>  (211) 
0

>  <r_i_glide_esite>  (211) 
0

>  <r_i_glide_emodel>  (211) 
-20.9743

>  <r_i_glide_energy>  (211) 
-17.3816

>  <r_i_glide_einternal>  (211) 
0

>  <r_i_glide_intrahb_reward>  (211) 
-0

>  <i_i_glide_confnum>  (211) 
1

>  <i_i_glide_posenum>  (211) 
32

>  <r_i_glide_eff_state_penalty>  (211) 
0

>  <ligand_id>  (211) 
74

>  <original_smiles>  (211) 
C1C2CC3C1CC1CC3C1C2

>  <smiles>  (211) 
[H]C1([H])C2([H])C([H])([H])C3([H])C1([H])C([H])([H])C1([H])C([H])([H])C3([H])C1([H])C2([H])[H]

$$$$
74:0:2
     RDKit          3D

 27 30  0  0  1  0  0  0  0  0999 V2000
    4.2329   -2.8222   -3.0320 C   0  0  0  0  0  0  0  0  0  0  0  0
    5.4973   -2.9254   -2.1872 C   0  0  1  0  0  0  0  0  0  0  0  0
    5.4671   -1.5564   -1.5067 C   0  0  0  0  0  0  0  0  0  0  0  0
    4.0532   -1.5456   -0.9339 C   0  0  1  0  0  0  0  0  0  0  0  0
    3.1967   -2.2635   -2.0475 C   0  0  2  0  0  0  0  0  0  0  0  0
    2.3222   -3.4327   -1.5045 C   0  0  0  0  0  0  0  0  0  0  0  0
    2.8918   -3.9515   -0.1869 C   0  0  2  0  0  0  0  0  0  0  0  0
    2.8032   -2.9187    0.9396 C   0  0  0  0  0  0  0  0  0  0  0  0
    4.1032   -2.3779    0.3474 C   0  0  1  0  0  0  0  0  0  0  0  0
    4.4253   -3.8405    0.0228 C   0  0  2  0  0  0  0  0  0  0  0  0
    5.4163   -4.0835   -1.1385 C   0  0  0  0  0  0  0  0  0  0  0  0
    3.9567   -3.7682   -3.4939 H   0  0  0  0  0  0  0  0  0  0  0  0
    4.3855   -2.1087   -3.8395 H   0  0  0  0  0  0  0  0  0  0  0  0
    6.3786   -3.0429   -2.8199 H   0  0  0  0  0  0  0  0  0  0  0  0
    6.2335   -1.4458   -0.7425 H   0  0  0  0  0  0  0  0  0  0  0  0
    5.5849   -0.7466   -2.2255 H   0  0  0  0  0  0  0  0  0  0  0  0
    3.7040   -0.5402   -0.7147 H   0  0  0  0  0  0  0  0  0  0  0  0
    2.5580   -1.5450   -2.5622 H   0  0  0  0  0  0  0  0  0  0  0  0
    1.3109   -3.0594   -1.3419 H   0  0  0  0  0  0  0  0  0  0  0  0
    2.2011   -4.2342   -2.2315 H   0  0  0  0  0  0  0  0  0  0  0  0
    2.4954   -4.9228    0.1230 H   0  0  0  0  0  0  0  0  0  0  0  0
    1.9675   -2.2217    0.8756 H   0  0  0  0  0  0  0  0  0  0  0  0
    2.9130   -3.3343    1.9402 H   0  0  0  0  0  0  0  0  0  0  0  0
    4.7651   -1.9751    1.1191 H   0  0  0  0  0  0  0  0  0  0  0  0
    4.7154   -4.3979    0.9184 H   0  0  0  0  0  0  0  0  0  0  0  0
    5.1666   -5.0146   -1.6501 H   0  0  0  0  0  0  0  0  0  0  0  0
    6.4083   -4.2248   -0.7199 H   0  0  0  0  0  0  0  0  0  0  0  0
  1  5  1  0
  1  2  1  0
  1 12  1  0
  1 13  1  0
  2 11  1  0
  2  3  1  0
  2 14  1  6
  3  4  1  0
  3 15  1  0
  3 16  1  0
  4  9  1  0
  4  5  1  0
  4 17  1  1
  5  6  1  0
  5 18  1  6
  6  7  1  0
  6 19  1  0
  6 20  1  0
  7 10  1  0
  7  8  1  0
  7 21  1  1
  8  9  1  0
  8 22  1  0
  8 23  1  0
  9 10  1  0
  9 24  1  1
 10 11  1  0
 10 25  1  1
 11 26  1  0
 11 27  1  0
M  END
>  <i_m_ct_stereo_status>  (212) 
1

>  <s_m_source_file>  (212) 
/var/tmp/pbs.5076255.sched01/tmpl83nofxy/76c90atywu.sdf

>  <i_m_source_file_index>  (212) 
27

>  <i_lp_mmshare_version>  (212) 
48012

>  <i_f3d_flags>  (212) 
0

>  <s_epik_input>  (212) 
W0NASF0xMltDSDJdW0NAQEhdM1tDQEhdKFtDSDJdMSlbQ0BASF00W0NASF0oW0NIMl0yKVtDQEhdKFtDSDJdMylbQ0gyXTQ=

>  <s_epik_cmdline>  (212) 
J2VwaWtfcHl0aG9uJywgJy1waHQnLCAnMi4wJywgJy1waCcsICc3LjAnLCAnLXRuJywgJzgnLCAnLW1hJywgJzIwMCcsICctaW1hZScsICc8aW5maWxlLm1hZT4nLCAnLW9tYWUnLCAnPG91dGZpbGUubWFlPic=

>  <r_lp_tautomer_probability>  (212) 
1

>  <r_epik_Ionization_Penalty>  (212) 
0

>  <r_epik_Ionization_Penalty_Charging>  (212) 
0

>  <r_epik_Ionization_Penalty_Neutral>  (212) 
0

>  <r_epik_State_Penalty>  (212) 
-0

>  <r_epik_Charging_Adjusted_Penalty>  (212) 
0

>  <i_epik_Tot_Q>  (212) 
0

>  <i_epik_Tot_abs_Q>  (212) 
0

>  <s_lp_Force_Field>  (212) 
OPLS3e

>  <r_lp_Energy>  (212) 
48.8864

>  <b_lp_Chiralities_Consistent>  (212) 
1

>  <s_lp_Variant>  (212) 
74:0-1

>  <s_i_glide_gridfile>  (212) 
pfpi4k_grid

>  <i_i_glide_lignum>  (212) 
27

>  <i_i_glide_rotatable_bonds>  (212) 
0

>  <r_i_docking_score>  (212) 
-3.33109

>  <r_i_glide_ligand_efficiency>  (212) 
-0.302826

>  <r_i_glide_ligand_efficiency_sa>  (212) 
-0.673479

>  <r_i_glide_ligand_efficiency_ln>  (212) 
-0.980339

>  <r_i_glide_gscore>  (212) 
-3.33109

>  <r_i_glide_lipo>  (212) 
-0.347098

>  <r_i_glide_hbond>  (212) 
0

>  <r_i_glide_metal>  (212) 
-0

>  <r_i_glide_rewards>  (212) 
-2.25

>  <r_i_glide_evdw>  (212) 
-14.4917

>  <r_i_glide_ecoul>  (212) 
-0.0627071

>  <r_i_glide_erotb>  (212) 
0

>  <r_i_glide_esite>  (212) 
0

>  <r_i_glide_emodel>  (212) 
-17.9838

>  <r_i_glide_energy>  (212) 
-14.5544

>  <r_i_glide_einternal>  (212) 
0

>  <r_i_glide_intrahb_reward>  (212) 
-0

>  <i_i_glide_confnum>  (212) 
2

>  <i_i_glide_posenum>  (212) 
24

>  <r_i_glide_eff_state_penalty>  (212) 
0

>  <ligand_id>  (212) 
74

>  <original_smiles>  (212) 
C1C2CC3C1CC1CC3C1C2

>  <smiles>  (212) 
[H]C1([H])C2([H])C([H])([H])C3([H])C1([H])C([H])([H])C1([H])C([H])([H])C3([H])C1([H])C2([H])[H]

$$$$
76:0:0
     RDKit          3D

 85 90  0  0  1  0  0  0  0  0999 V2000
   -2.1187    2.2665    2.9681 C   0  0  0  0  0  0  0  0  0  0  0  0
   -0.7224    2.3143    3.1971 O   0  0  0  0  0  0  0  0  0  0  0  0
   -0.0279    1.1738    3.3618 C   0  0  0  0  0  0  0  0  0  0  0  0
   -0.5300    0.0503    3.4474 O   0  0  0  0  0  0  0  0  0  0  0  0
    1.4940    1.4004    3.4693 C   0  0  1  0  0  0  0  0  0  0  0  0
    1.9615    2.1326    2.1919 C   0  0  0  0  0  0  0  0  0  0  0  0
    1.7846    2.2125    4.7554 C   0  0  0  0  0  0  0  0  0  0  0  0
    3.2744    2.2100    5.1354 C   0  0  1  0  0  0  0  0  0  0  0  0
    3.5613    3.1365    6.3302 C   0  0  0  0  0  0  0  0  0  0  0  0
    3.7727    0.7530    5.2999 C   0  0  1  0  0  0  0  0  0  0  0  0
    3.2863    0.0836    6.6285 C   0  0  0  0  0  0  0  0  0  0  0  0
    3.8012   -1.3437    6.9711 C   0  0  0  0  0  0  0  0  0  0  0  0
    2.9694   -2.6104    6.4901 C   0  0  1  0  0  0  0  0  0  0  0  0
    2.4757   -3.2203    7.8217 C   0  0  0  0  0  0  0  0  0  0  0  0
    1.9332   -2.3007    5.3927 C   0  0  2  0  0  0  0  0  0  0  0  0
    0.5447   -2.9397    5.3787 C   0  0  0  0  0  0  0  0  0  0  0  0
    0.4271   -4.4287    5.7079 C   0  0  0  0  0  0  0  0  0  0  0  0
    1.4409   -5.3339    5.0241 C   0  0  0  0  0  0  0  0  0  0  0  0
    1.0105   -6.3215    4.1888 C   0  0  0  0  0  0  0  0  0  0  0  0
   -0.4337   -6.6758    3.8563 C   0  0  0  0  0  0  0  0  0  0  0  0
   -0.3710   -8.1640    3.5913 C   0  0  0  0  0  0  0  0  0  0  0  0
   -1.3507   -8.8248    3.2628 O   0  0  0  0  0  0  0  0  0  0  0  0
    1.0570   -8.6773    3.6866 C   0  0  1  0  0  0  0  0  0  0  0  0
    1.3717   -9.8214    2.7066 C   0  0  0  0  0  0  0  0  0  0  0  0
    1.8838   -7.3708    3.5255 C   0  0  1  0  0  0  0  0  0  0  0  0
    2.0680   -6.9711    2.0345 C   0  0  0  0  0  0  0  0  0  0  0  0
    3.2319   -7.4672    4.2463 C   0  0  0  0  0  0  0  0  0  0  0  0
    3.8368   -6.0828    4.4777 C   0  0  0  0  0  0  0  0  0  0  0  0
    2.9578   -5.1257    5.3450 C   0  0  1  0  0  0  0  0  0  0  0  0
    3.5532   -3.6292    5.4065 C   0  0  2  0  0  0  0  0  0  0  0  0
    5.0945   -3.8251    5.5175 C   0  0  0  0  0  0  0  0  0  0  0  0
    3.0165   -2.6108    4.3199 C   0  0  1  0  0  0  0  0  0  0  0  0
    2.4607   -3.1524    2.9804 C   0  0  0  0  0  0  0  0  0  0  0  0
    4.0071   -1.4441    3.9114 C   0  0  1  0  0  0  0  0  0  0  0  0
    4.6708   -1.6741    2.6794 O   0  0  0  0  0  0  0  0  0  0  0  0
    3.4867    0.0209    3.9524 C   0  0  1  0  0  0  0  0  0  0  0  0
    2.1120    0.1074    3.5570 O   0  0  0  0  0  0  0  0  0  0  0  0
   -2.5063    3.2783    2.8514 H   0  0  0  0  0  0  0  0  0  0  0  0
   -2.6366    1.7912    3.8021 H   0  0  0  0  0  0  0  0  0  0  0  0
   -2.3353    1.7218    2.0493 H   0  0  0  0  0  0  0  0  0  0  0  0
    1.4940    3.1147    2.1078 H   0  0  0  0  0  0  0  0  0  0  0  0
    1.6995    1.5749    1.2910 H   0  0  0  0  0  0  0  0  0  0  0  0
    3.0320    2.3079    2.1742 H   0  0  0  0  0  0  0  0  0  0  0  0
    1.4393    3.2398    4.6295 H   0  0  0  0  0  0  0  0  0  0  0  0
    1.2051    1.7946    5.5802 H   0  0  0  0  0  0  0  0  0  0  0  0
    3.8238    2.6459    4.2989 H   0  0  0  0  0  0  0  0  0  0  0  0
    2.9634    2.8751    7.2031 H   0  0  0  0  0  0  0  0  0  0  0  0
    3.3235    4.1681    6.0731 H   0  0  0  0  0  0  0  0  0  0  0  0
    4.6138    3.1053    6.6114 H   0  0  0  0  0  0  0  0  0  0  0  0
    4.8604    0.8064    5.3871 H   0  0  0  0  0  0  0  0  0  0  0  0
    3.6870    0.7084    7.4257 H   0  0  0  0  0  0  0  0  0  0  0  0
    2.2102    0.1615    6.7713 H   0  0  0  0  0  0  0  0  0  0  0  0
    4.8519   -1.3810    6.7173 H   0  0  0  0  0  0  0  0  0  0  0  0
    3.8645   -1.3332    8.0596 H   0  0  0  0  0  0  0  0  0  0  0  0
    2.1771   -4.2565    7.7391 H   0  0  0  0  0  0  0  0  0  0  0  0
    1.6294   -2.6636    8.2263 H   0  0  0  0  0  0  0  0  0  0  0  0
    3.2530   -3.2567    8.5867 H   0  0  0  0  0  0  0  0  0  0  0  0
    1.7080   -1.2540    5.3568 H   0  0  0  0  0  0  0  0  0  0  0  0
   -0.0925   -2.4033    6.0834 H   0  0  0  0  0  0  0  0  0  0  0  0
    0.0722   -2.7550    4.4122 H   0  0  0  0  0  0  0  0  0  0  0  0
    0.4144   -4.6189    6.7736 H   0  0  0  0  0  0  0  0  0  0  0  0
   -0.5842   -4.6935    5.4179 H   0  0  0  0  0  0  0  0  0  0  0  0
   -1.1719   -6.4544    4.6234 H   0  0  0  0  0  0  0  0  0  0  0  0
   -0.7239   -6.2378    2.9066 H   0  0  0  0  0  0  0  0  0  0  0  0
    1.1766   -9.0603    4.6973 H   0  0  0  0  0  0  0  0  0  0  0  0
    0.8005  -10.7180    2.9552 H   0  0  0  0  0  0  0  0  0  0  0  0
    2.4270  -10.1005    2.7385 H   0  0  0  0  0  0  0  0  0  0  0  0
    1.1278   -9.5636    1.6804 H   0  0  0  0  0  0  0  0  0  0  0  0
    2.7485   -7.6465    1.5135 H   0  0  0  0  0  0  0  0  0  0  0  0
    2.4709   -5.9630    1.9457 H   0  0  0  0  0  0  0  0  0  0  0  0
    1.1224   -6.9752    1.4907 H   0  0  0  0  0  0  0  0  0  0  0  0
    3.1054   -7.9640    5.2092 H   0  0  0  0  0  0  0  0  0  0  0  0
    3.9169   -8.0918    3.6716 H   0  0  0  0  0  0  0  0  0  0  0  0
    4.8003   -6.2678    4.9540 H   0  0  0  0  0  0  0  0  0  0  0  0
    4.0612   -5.6216    3.5167 H   0  0  0  0  0  0  0  0  0  0  0  0
    3.0523   -5.5550    6.3368 H   0  0  0  0  0  0  0  0  0  0  0  0
    5.5320   -4.1470    4.5741 H   0  0  0  0  0  0  0  0  0  0  0  0
    5.3520   -4.5444    6.2935 H   0  0  0  0  0  0  0  0  0  0  0  0
    5.6588   -2.9386    5.7729 H   0  0  0  0  0  0  0  0  0  0  0  0
    3.2079   -3.7325    2.4392 H   0  0  0  0  0  0  0  0  0  0  0  0
    2.1148   -2.3472    2.3335 H   0  0  0  0  0  0  0  0  0  0  0  0
    1.5958   -3.7972    3.0897 H   0  0  0  0  0  0  0  0  0  0  0  0
    4.8682   -1.4330    4.5634 H   0  0  0  0  0  0  0  0  0  0  0  0
    4.0245   -1.6180    1.9881 H   0  0  0  0  0  0  0  0  0  0  0  0
    4.0590    0.5683    3.2009 H   0  0  0  0  0  0  0  0  0  0  0  0
  1  2  1  0
  1 38  1  0
  1 39  1  0
  1 40  1  0
  2  3  1  0
  3  4  2  0
  3  5  1  0
  5 37  1  0
  5  6  1  6
  5  7  1  0
  6 41  1  0
  6 42  1  0
  6 43  1  0
  7  8  1  0
  7 44  1  0
  7 45  1  0
  8  9  1  0
  8 10  1  0
  8 46  1  6
  9 47  1  0
  9 48  1  0
  9 49  1  0
 10 36  1  0
 10 11  1  0
 10 50  1  1
 11 12  1  0
 11 51  1  0
 11 52  1  0
 12 13  1  0
 12 53  1  0
 12 54  1  0
 13 30  1  0
 13 14  1  1
 13 15  1  0
 14 55  1  0
 14 56  1  0
 14 57  1  0
 15 32  1  0
 15 16  1  0
 15 58  1  1
 16 17  1  0
 16 59  1  0
 16 60  1  0
 17 18  1  0
 17 61  1  0
 17 62  1  0
 18 29  1  0
 18 19  2  0
 19 25  1  0
 19 20  1  0
 20 21  1  0
 20 63  1  0
 20 64  1  0
 21 22  2  0
 21 23  1  0
 23 24  1  0
 23 25  1  0
 23 65  1  1
 24 66  1  0
 24 67  1  0
 24 68  1  0
 25 26  1  6
 25 27  1  0
 26 69  1  0
 26 70  1  0
 26 71  1  0
 27 28  1  0
 27 72  1  0
 27 73  1  0
 28 29  1  0
 28 74  1  0
 28 75  1  0
 29 30  1  0
 29 76  1  1
 30 31  1  1
 30 32  1  0
 31 77  1  0
 31 78  1  0
 31 79  1  0
 32 33  1  6
 32 34  1  0
 33 80  1  0
 33 81  1  0
 33 82  1  0
 34 35  1  0
 34 36  1  0
 34 83  1  1
 35 84  1  0
 36 37  1  0
 36 85  1  6
M  END
>  <i_m_ct_stereo_status>  (213) 
1

>  <s_m_source_file>  (213) 
/var/tmp/pbs.5076255.sched01/tmpl83nofxy/76c90atywu.sdf

>  <i_m_source_file_index>  (213) 
29

>  <i_lp_mmshare_version>  (213) 
48012

>  <i_f3d_flags>  (213) 
0

>  <s_epik_input>  (213) 
W0NIM11PQyg9TylbQ0BAXShPMSkoW0NIM10pW0NIMl1bQ0BASF0oW0NIM10pW0NAQEhdKFtDSDJdW0NIMl0yKVtDQEhdMVtDQEhdKFtPSF0pW0NAXShbQ0gzXSkoW0NAQEhdM1tDQF0yNFtDSDNdKVtDQF00KFtDSDNdKVtDQEhdNUMoW0NIMl1bQ0gyXTMpPUM2W0NAQF0oW0NIM10pKFtDSDJdW0NIMl01KVtDQEhdKFtDSDNdKUMoPU8pW0NIMl02

>  <s_epik_cmdline>  (213) 
J2VwaWtfcHl0aG9uJywgJy1waHQnLCAnMi4wJywgJy1waCcsICc3LjAnLCAnLXRuJywgJzgnLCAnLW1hJywgJzIwMCcsICctaW1hZScsICc8aW5maWxlLm1hZT4nLCAnLW9tYWUnLCAnPG91dGZpbGUubWFlPic=

>  <r_lp_tautomer_probability>  (213) 
1

>  <r_epik_Ionization_Penalty>  (213) 
1.69757e-07

>  <r_epik_Ionization_Penalty_Charging>  (213) 
0

>  <r_epik_Ionization_Penalty_Neutral>  (213) 
1.69757e-07

>  <r_epik_State_Penalty>  (213) 
-0

>  <r_epik_Charging_Adjusted_Penalty>  (213) 
0

>  <i_epik_Tot_Q>  (213) 
0

>  <i_epik_Tot_abs_Q>  (213) 
0

>  <s_epik_Chemistry_Notes>  (213) 
This compound has an ester and may undergo hydrolysis at high or low pH.

>  <s_lp_Force_Field>  (213) 
OPLS3e

>  <r_lp_Energy>  (213) 
108.794

>  <b_lp_Chiralities_Consistent>  (213) 
1

>  <s_lp_Variant>  (213) 
76:0-1

>  <s_i_glide_gridfile>  (213) 
pfpi4k_grid

>  <i_i_glide_lignum>  (213) 
29

>  <i_i_glide_rotatable_bonds>  (213) 
3

>  <r_i_docking_score>  (213) 
-1.18398

>  <r_i_glide_ligand_efficiency>  (213) 
-0.0319995

>  <r_i_glide_ligand_efficiency_sa>  (213) 
-0.10663

>  <r_i_glide_ligand_efficiency_ln>  (213) 
-0.256778

>  <r_i_glide_gscore>  (213) 
-1.18398

>  <r_i_glide_lipo>  (213) 
-0.103244

>  <r_i_glide_hbond>  (213) 
0

>  <r_i_glide_metal>  (213) 
-0

>  <r_i_glide_rewards>  (213) 
0

>  <r_i_glide_evdw>  (213) 
-24.905

>  <r_i_glide_ecoul>  (213) 
1.0909

>  <r_i_glide_erotb>  (213) 
0.0779871

>  <r_i_glide_esite>  (213) 
-0.0771095

>  <r_i_glide_emodel>  (213) 
-25.1537

>  <r_i_glide_energy>  (213) 
-23.8141

>  <r_i_glide_einternal>  (213) 
0.189438

>  <r_i_glide_intrahb_reward>  (213) 
-0

>  <i_i_glide_confnum>  (213) 
2

>  <i_i_glide_posenum>  (213) 
8

>  <r_i_glide_eff_state_penalty>  (213) 
0

>  <ligand_id>  (213) 
76

>  <original_smiles>  (213) 
COC(=O)C1(C)CC(C)C2CCC3(C)C4CCC5=C6CC(=O)C(C)C6(C)CCC5C3(C)C4(C)C(O)C2O1

>  <smiles>  (213) 
[H]OC1([H])C2([H])OC(C(=O)OC([H])([H])[H])(C([H])([H])[H])C([H])([H])C([H])(C([H])([H])[H])C2([H])C([H])([H])C([H])([H])C2(C([H])([H])[H])C3([H])C([H])([H])C([H])([H])C4=C5C([H])([H])C(=O)C([H])(C([H])([H])[H])C5(C([H])([H])[H])C([H])([H])C([H])([H])C4([H])C2(C([H])([H])[H])C13C([H])([H])[H]

$$$$
76:0:1
     RDKit          3D

 85 90  0  0  1  0  0  0  0  0999 V2000
   -1.6138   -0.0103    5.2818 C   0  0  0  0  0  0  0  0  0  0  0  0
   -0.2555    0.2338    4.9630 O   0  0  0  0  0  0  0  0  0  0  0  0
    0.0413    1.2506    4.1244 C   0  0  0  0  0  0  0  0  0  0  0  0
   -0.7918    2.0301    3.6682 O   0  0  0  0  0  0  0  0  0  0  0  0
    1.5570    1.3798    3.8317 C   0  0  1  0  0  0  0  0  0  0  0  0
    1.7578    2.1664    2.5115 C   0  0  0  0  0  0  0  0  0  0  0  0
    2.2447    2.0810    5.0324 C   0  0  0  0  0  0  0  0  0  0  0  0
    3.7776    1.9450    4.9986 C   0  0  1  0  0  0  0  0  0  0  0  0
    4.4549    2.7664    6.1092 C   0  0  0  0  0  0  0  0  0  0  0  0
    4.1722    0.4480    4.9471 C   0  0  1  0  0  0  0  0  0  0  0  0
    4.0015   -0.2704    6.3249 C   0  0  0  0  0  0  0  0  0  0  0  0
    4.4657   -1.7470    6.4446 C   0  0  0  0  0  0  0  0  0  0  0  0
    3.4271   -2.9169    6.1568 C   0  0  1  0  0  0  0  0  0  0  0  0
    3.2633   -3.5730    7.5396 C   0  0  0  0  0  0  0  0  0  0  0  0
    2.1717   -2.4550    5.3958 C   0  0  2  0  0  0  0  0  0  0  0  0
    0.7800   -2.9961    5.7318 C   0  0  0  0  0  0  0  0  0  0  0  0
    0.6297   -4.4906    6.0091 C   0  0  0  0  0  0  0  0  0  0  0  0
    1.3333   -5.4118    5.0443 C   0  0  0  0  0  0  0  0  0  0  0  0
    0.6163   -6.3145    4.3146 C   0  0  0  0  0  0  0  0  0  0  0  0
   -0.8821   -6.5508    4.4044 C   0  0  0  0  0  0  0  0  0  0  0  0
   -1.0331   -8.0106    4.0061 C   0  0  0  0  0  0  0  0  0  0  0  0
   -2.0999   -8.5653    3.8187 O   0  0  0  0  0  0  0  0  0  0  0  0
    0.3306   -8.6238    3.7055 C   0  0  1  0  0  0  0  0  0  0  0  0
    0.2565   -9.7090    2.6214 C   0  0  0  0  0  0  0  0  0  0  0  0
    1.1813   -7.3692    3.3795 C   0  0  1  0  0  0  0  0  0  0  0  0
    1.0000   -6.8900    1.9166 C   0  0  0  0  0  0  0  0  0  0  0  0
    2.6643   -7.6154    3.7046 C   0  0  0  0  0  0  0  0  0  0  0  0
    3.4185   -6.2924    3.8267 C   0  0  0  0  0  0  0  0  0  0  0  0
    2.8886   -5.3389    4.9427 C   0  0  1  0  0  0  0  0  0  0  0  0
    3.6112   -3.9009    4.9016 C   0  0  2  0  0  0  0  0  0  0  0  0
    5.1002   -4.2198    4.5870 C   0  0  0  0  0  0  0  0  0  0  0  0
    2.8939   -2.7713    4.0484 C   0  0  1  0  0  0  0  0  0  0  0  0
    1.9616   -3.1718    2.8854 C   0  0  0  0  0  0  0  0  0  0  0  0
    3.8391   -1.6515    3.4460 C   0  0  1  0  0  0  0  0  0  0  0  0
    4.1335   -1.8507    2.0752 O   0  0  0  0  0  0  0  0  0  0  0  0
    3.4697   -0.1664    3.6946 C   0  0  1  0  0  0  0  0  0  0  0  0
    2.0557    0.0451    3.6883 O   0  0  0  0  0  0  0  0  0  0  0  0
   -1.6803   -0.8590    5.9674 H   0  0  0  0  0  0  0  0  0  0  0  0
   -2.1793   -0.2426    4.3744 H   0  0  0  0  0  0  0  0  0  0  0  0
   -2.0577    0.8688    5.7562 H   0  0  0  0  0  0  0  0  0  0  0  0
    1.3785    3.1825    2.6026 H   0  0  0  0  0  0  0  0  0  0  0  0
    1.2252    1.7001    1.6795 H   0  0  0  0  0  0  0  0  0  0  0  0
    2.7979    2.2565    2.2168 H   0  0  0  0  0  0  0  0  0  0  0  0
    1.9687    3.1360    5.0381 H   0  0  0  0  0  0  0  0  0  0  0  0
    1.8643    1.6572    5.9637 H   0  0  0  0  0  0  0  0  0  0  0  0
    4.1287    2.4008    4.0727 H   0  0  0  0  0  0  0  0  0  0  0  0
    4.0980    2.4962    7.1020 H   0  0  0  0  0  0  0  0  0  0  0  0
    4.2519    3.8249    5.9636 H   0  0  0  0  0  0  0  0  0  0  0  0
    5.5366    2.6391    6.0818 H   0  0  0  0  0  0  0  0  0  0  0  0
    5.2441    0.4180    4.7352 H   0  0  0  0  0  0  0  0  0  0  0  0
    4.6583    0.2665    7.0076 H   0  0  0  0  0  0  0  0  0  0  0  0
    3.0113   -0.1252    6.7619 H   0  0  0  0  0  0  0  0  0  0  0  0
    5.4100   -1.8465    5.9192 H   0  0  0  0  0  0  0  0  0  0  0  0
    4.8122   -1.8097    7.4774 H   0  0  0  0  0  0  0  0  0  0  0  0
    2.8670   -4.5786    7.4974 H   0  0  0  0  0  0  0  0  0  0  0  0
    2.6136   -2.9802    8.1824 H   0  0  0  0  0  0  0  0  0  0  0  0
    4.2135   -3.7078    8.0620 H   0  0  0  0  0  0  0  0  0  0  0  0
    2.0382   -1.4018    5.4746 H   0  0  0  0  0  0  0  0  0  0  0  0
    0.3923   -2.4603    6.6033 H   0  0  0  0  0  0  0  0  0  0  0  0
    0.0796   -2.7235    4.9344 H   0  0  0  0  0  0  0  0  0  0  0  0
    0.8810   -4.7537    7.0270 H   0  0  0  0  0  0  0  0  0  0  0  0
   -0.4459   -4.6551    6.0003 H   0  0  0  0  0  0  0  0  0  0  0  0
   -1.3341   -6.3439    5.3712 H   0  0  0  0  0  0  0  0  0  0  0  0
   -1.4068   -5.9814    3.6510 H   0  0  0  0  0  0  0  0  0  0  0  0
    0.6812   -9.0805    4.6244 H   0  0  0  0  0  0  0  0  0  0  0  0
   -0.2940  -10.5724    2.9797 H   0  0  0  0  0  0  0  0  0  0  0  0
    1.2436  -10.0650    2.3299 H   0  0  0  0  0  0  0  0  0  0  0  0
   -0.2551   -9.3551    1.7338 H   0  0  0  0  0  0  0  0  0  0  0  0
    1.4482   -7.5813    1.2012 H   0  0  0  0  0  0  0  0  0  0  0  0
    1.4499   -5.9134    1.7603 H   0  0  0  0  0  0  0  0  0  0  0  0
   -0.0533   -6.7963    1.6519 H   0  0  0  0  0  0  0  0  0  0  0  0
    2.7502   -8.1616    4.6403 H   0  0  0  0  0  0  0  0  0  0  0  0
    3.1131   -8.2486    2.9364 H   0  0  0  0  0  0  0  0  0  0  0  0
    4.4574   -6.5856    4.0140 H   0  0  0  0  0  0  0  0  0  0  0  0
    3.4172   -5.7891    2.8554 H   0  0  0  0  0  0  0  0  0  0  0  0
    3.1936   -5.8404    5.8507 H   0  0  0  0  0  0  0  0  0  0  0  0
    5.2285   -4.5095    3.5483 H   0  0  0  0  0  0  0  0  0  0  0  0
    5.4733   -5.0117    5.2335 H   0  0  0  0  0  0  0  0  0  0  0  0
    5.7800   -3.3923    4.7302 H   0  0  0  0  0  0  0  0  0  0  0  0
    2.4896   -3.7612    2.1393 H   0  0  0  0  0  0  0  0  0  0  0  0
    1.5507   -2.2953    2.3945 H   0  0  0  0  0  0  0  0  0  0  0  0
    1.0992   -3.7526    3.1940 H   0  0  0  0  0  0  0  0  0  0  0  0
    4.8362   -1.7469    3.8506 H   0  0  0  0  0  0  0  0  0  0  0  0
    4.4606   -2.7367    1.9835 H   0  0  0  0  0  0  0  0  0  0  0  0
    3.8550    0.3893    2.8415 H   0  0  0  0  0  0  0  0  0  0  0  0
  1  2  1  0
  1 38  1  0
  1 39  1  0
  1 40  1  0
  2  3  1  0
  3  4  2  0
  3  5  1  0
  5 37  1  0
  5  6  1  6
  5  7  1  0
  6 41  1  0
  6 42  1  0
  6 43  1  0
  7  8  1  0
  7 44  1  0
  7 45  1  0
  8  9  1  0
  8 10  1  0
  8 46  1  6
  9 47  1  0
  9 48  1  0
  9 49  1  0
 10 36  1  0
 10 11  1  0
 10 50  1  6
 11 12  1  0
 11 51  1  0
 11 52  1  0
 12 13  1  0
 12 53  1  0
 12 54  1  0
 13 30  1  0
 13 14  1  1
 13 15  1  0
 14 55  1  0
 14 56  1  0
 14 57  1  0
 15 32  1  0
 15 16  1  0
 15 58  1  6
 16 17  1  0
 16 59  1  0
 16 60  1  0
 17 18  1  0
 17 61  1  0
 17 62  1  0
 18 29  1  0
 18 19  2  0
 19 25  1  0
 19 20  1  0
 20 21  1  0
 20 63  1  0
 20 64  1  0
 21 22  2  0
 21 23  1  0
 23 24  1  0
 23 25  1  0
 23 65  1  1
 24 66  1  0
 24 67  1  0
 24 68  1  0
 25 26  1  6
 25 27  1  0
 26 69  1  0
 26 70  1  0
 26 71  1  0
 27 28  1  0
 27 72  1  0
 27 73  1  0
 28 29  1  0
 28 74  1  0
 28 75  1  0
 29 30  1  0
 29 76  1  1
 30 31  1  6
 30 32  1  0
 31 77  1  0
 31 78  1  0
 31 79  1  0
 32 33  1  6
 32 34  1  0
 33 80  1  0
 33 81  1  0
 33 82  1  0
 34 35  1  0
 34 36  1  0
 34 83  1  1
 35 84  1  0
 36 37  1  0
 36 85  1  6
M  END
>  <i_m_ct_stereo_status>  (214) 
1

>  <s_m_source_file>  (214) 
/var/tmp/pbs.5076255.sched01/tmpl83nofxy/76c90atywu.sdf

>  <i_m_source_file_index>  (214) 
29

>  <i_lp_mmshare_version>  (214) 
48012

>  <i_f3d_flags>  (214) 
0

>  <s_epik_input>  (214) 
W0NIM11PQyg9TylbQ0BAXShPMSkoW0NIM10pW0NIMl1bQ0BASF0oW0NIM10pW0NAQEhdKFtDSDJdW0NIMl0yKVtDQEhdMVtDQEhdKFtPSF0pW0NAXShbQ0gzXSkoW0NAQEhdM1tDQF0yNFtDSDNdKVtDQF00KFtDSDNdKVtDQEhdNUMoW0NIMl1bQ0gyXTMpPUM2W0NAQF0oW0NIM10pKFtDSDJdW0NIMl01KVtDQEhdKFtDSDNdKUMoPU8pW0NIMl02

>  <s_epik_cmdline>  (214) 
J2VwaWtfcHl0aG9uJywgJy1waHQnLCAnMi4wJywgJy1waCcsICc3LjAnLCAnLXRuJywgJzgnLCAnLW1hJywgJzIwMCcsICctaW1hZScsICc8aW5maWxlLm1hZT4nLCAnLW9tYWUnLCAnPG91dGZpbGUubWFlPic=

>  <r_lp_tautomer_probability>  (214) 
1

>  <r_epik_Ionization_Penalty>  (214) 
1.69757e-07

>  <r_epik_Ionization_Penalty_Charging>  (214) 
0

>  <r_epik_Ionization_Penalty_Neutral>  (214) 
1.69757e-07

>  <r_epik_State_Penalty>  (214) 
-0

>  <r_epik_Charging_Adjusted_Penalty>  (214) 
0

>  <i_epik_Tot_Q>  (214) 
0

>  <i_epik_Tot_abs_Q>  (214) 
0

>  <s_epik_Chemistry_Notes>  (214) 
This compound has an ester and may undergo hydrolysis at high or low pH.

>  <s_lp_Force_Field>  (214) 
OPLS3e

>  <r_lp_Energy>  (214) 
108.794

>  <b_lp_Chiralities_Consistent>  (214) 
1

>  <s_lp_Variant>  (214) 
76:0-1

>  <s_i_glide_gridfile>  (214) 
pfpi4k_grid

>  <i_i_glide_lignum>  (214) 
29

>  <i_i_glide_rotatable_bonds>  (214) 
3

>  <r_i_docking_score>  (214) 
-0.946675

>  <r_i_glide_ligand_efficiency>  (214) 
-0.0255858

>  <r_i_glide_ligand_efficiency_sa>  (214) 
-0.0852576

>  <r_i_glide_ligand_efficiency_ln>  (214) 
-0.205312

>  <r_i_glide_gscore>  (214) 
-0.946675

>  <r_i_glide_lipo>  (214) 
-0.0207934

>  <r_i_glide_hbond>  (214) 
0

>  <r_i_glide_metal>  (214) 
-0

>  <r_i_glide_rewards>  (214) 
0

>  <r_i_glide_evdw>  (214) 
-23.8365

>  <r_i_glide_ecoul>  (214) 
1.82852

>  <r_i_glide_erotb>  (214) 
0.0779871

>  <r_i_glide_esite>  (214) 
-0.0863198

>  <r_i_glide_emodel>  (214) 
-22.4468

>  <r_i_glide_energy>  (214) 
-22.008

>  <r_i_glide_einternal>  (214) 
1.27402

>  <r_i_glide_intrahb_reward>  (214) 
-0

>  <i_i_glide_confnum>  (214) 
5

>  <i_i_glide_posenum>  (214) 
1

>  <r_i_glide_eff_state_penalty>  (214) 
0

>  <ligand_id>  (214) 
76

>  <original_smiles>  (214) 
COC(=O)C1(C)CC(C)C2CCC3(C)C4CCC5=C6CC(=O)C(C)C6(C)CCC5C3(C)C4(C)C(O)C2O1

>  <smiles>  (214) 
[H]OC1([H])C2([H])OC(C(=O)OC([H])([H])[H])(C([H])([H])[H])C([H])([H])C([H])(C([H])([H])[H])C2([H])C([H])([H])C([H])([H])C2(C([H])([H])[H])C3([H])C([H])([H])C([H])([H])C4=C5C([H])([H])C(=O)C([H])(C([H])([H])[H])C5(C([H])([H])[H])C([H])([H])C([H])([H])C4([H])C2(C([H])([H])[H])C13C([H])([H])[H]

$$$$
77:0:0
     RDKit          3D

 65 70  0  0  1  0  0  0  0  0999 V2000
    3.4366    0.3431    1.8276 C   0  0  0  0  0  0  0  0  0  0  0  0
    2.0025   -0.0962    2.2114 C   0  0  2  0  0  0  0  0  0  0  0  0
    1.0225    1.1462    2.2821 C   0  0  0  0  0  0  0  0  0  0  0  0
    0.0063    1.3116    3.4621 C   0  0  1  0  0  0  0  0  0  0  0  0
   -1.2601    1.0011    2.8972 O   0  0  0  0  0  0  0  0  0  0  0  0
    0.3609    0.4324    4.4470 O   0  0  0  0  0  0  0  0  0  0  0  0
   -0.3724    0.1485    5.6245 C   0  0  1  0  0  0  0  0  0  0  0  0
   -1.5513   -0.8041    5.2983 C   0  0  0  0  0  0  0  0  0  0  0  0
    0.6345   -0.6320    6.5334 C   0  0  0  0  0  0  0  0  0  0  0  0
    0.2646   -0.8428    7.6917 O   0  0  0  0  0  0  0  0  0  0  0  0
    2.0212   -1.1747    6.0677 C   0  0  2  0  0  0  0  0  0  0  0  0
    2.4773   -2.2650    7.0273 C   0  0  0  0  0  0  0  0  0  0  0  0
    3.1454   -0.1693    5.5883 C   0  0  2  0  0  0  0  0  0  0  0  0
    3.0341    1.3307    5.8618 C   0  0  0  0  0  0  0  0  0  0  0  0
    2.5713    2.2215    4.7320 C   0  0  1  0  0  0  0  0  0  0  0  0
    1.3043    3.0326    4.9757 C   0  0  1  0  0  0  0  0  0  0  0  0
    2.6085    3.7430    4.6440 C   0  0  0  0  0  0  0  0  0  0  0  0
    3.3490    4.4939    5.7321 C   0  0  0  0  0  0  0  0  0  0  0  0
    2.7648    4.4809    3.3310 C   0  0  0  0  0  0  0  0  0  0  0  0
    0.0096    2.7222    4.1918 C   0  0  1  0  0  0  0  0  0  0  0  0
   -0.3134    3.7697    3.2888 O   0  0  0  0  0  0  0  0  0  0  0  0
   -1.1510    2.6790    5.2858 C   0  0  1  0  0  0  0  0  0  0  0  0
   -1.3393    4.0087    6.0517 C   0  0  0  0  0  0  0  0  0  0  0  0
   -2.4367    2.5416    4.7081 O   0  0  0  0  0  0  0  0  0  0  0  0
   -0.8667    1.4917    6.2843 C   0  0  1  0  0  0  0  0  0  0  0  0
   -1.9785    1.2886    7.1570 O   0  0  0  0  0  0  0  0  0  0  0  0
    2.4898   -1.1418    4.6265 C   0  0  1  0  0  0  0  0  0  0  0  0
    3.3710   -2.2079    4.3311 O   0  0  0  0  0  0  0  0  0  0  0  0
    2.9843   -2.4141    2.9564 C   0  0  0  0  0  0  0  0  0  0  0  0
    1.9922   -1.3035    3.2004 C   0  0  2  0  0  0  0  0  0  0  0  0
    0.6934   -1.8590    3.2102 O   0  0  0  0  0  0  0  0  0  0  0  0
    4.0990    0.3801    2.6966 H   0  0  0  0  0  0  0  0  0  0  0  0
    3.4509    1.3318    1.3648 H   0  0  0  0  0  0  0  0  0  0  0  0
    3.8919   -0.3325    1.1037 H   0  0  0  0  0  0  0  0  0  0  0  0
    1.6833   -0.5394    1.2745 H   0  0  0  0  0  0  0  0  0  0  0  0
    1.5502    2.0783    2.1385 H   0  0  0  0  0  0  0  0  0  0  0  0
    0.4371    1.1160    1.3597 H   0  0  0  0  0  0  0  0  0  0  0  0
   -1.3464    1.5205    2.1143 H   0  0  0  0  0  0  0  0  0  0  0  0
   -2.0396   -1.1354    6.2079 H   0  0  0  0  0  0  0  0  0  0  0  0
   -1.2181   -1.7102    4.7947 H   0  0  0  0  0  0  0  0  0  0  0  0
   -2.3221   -0.3325    4.6928 H   0  0  0  0  0  0  0  0  0  0  0  0
    3.4691   -2.6311    6.7583 H   0  0  0  0  0  0  0  0  0  0  0  0
    1.8040   -3.1123    7.0303 H   0  0  0  0  0  0  0  0  0  0  0  0
    2.5677   -1.8836    8.0383 H   0  0  0  0  0  0  0  0  0  0  0  0
    4.1415   -0.5068    5.8705 H   0  0  0  0  0  0  0  0  0  0  0  0
    2.3991    1.4706    6.7421 H   0  0  0  0  0  0  0  0  0  0  0  0
    4.0244    1.6748    6.1626 H   0  0  0  0  0  0  0  0  0  0  0  0
    2.8663    1.8372    3.7692 H   0  0  0  0  0  0  0  0  0  0  0  0
    1.1229    3.2230    6.0310 H   0  0  0  0  0  0  0  0  0  0  0  0
    2.9511    5.5035    5.8304 H   0  0  0  0  0  0  0  0  0  0  0  0
    4.4145    4.5522    5.5049 H   0  0  0  0  0  0  0  0  0  0  0  0
    3.2366    3.9934    6.6980 H   0  0  0  0  0  0  0  0  0  0  0  0
    2.3363    5.4779    3.4097 H   0  0  0  0  0  0  0  0  0  0  0  0
    2.2682    3.9732    2.5095 H   0  0  0  0  0  0  0  0  0  0  0  0
    3.8115    4.5750    3.0646 H   0  0  0  0  0  0  0  0  0  0  0  0
    0.1500    3.7147    2.4419 H   0  0  0  0  0  0  0  0  0  0  0  0
   -0.5190    4.2908    6.7029 H   0  0  0  0  0  0  0  0  0  0  0  0
   -2.2287    3.9842    6.6831 H   0  0  0  0  0  0  0  0  0  0  0  0
   -1.4751    4.8240    5.3466 H   0  0  0  0  0  0  0  0  0  0  0  0
   -2.3946    1.8200    4.0979 H   0  0  0  0  0  0  0  0  0  0  0  0
   -0.0807    1.8043    6.9704 H   0  0  0  0  0  0  0  0  0  0  0  0
   -2.1318    2.0998    7.6020 H   0  0  0  0  0  0  0  0  0  0  0  0
    3.7885   -2.2014    2.2515 H   0  0  0  0  0  0  0  0  0  0  0  0
    2.5377   -3.3842    2.7530 H   0  0  0  0  0  0  0  0  0  0  0  0
    0.4112   -1.8586    2.3108 H   0  0  0  0  0  0  0  0  0  0  0  0
  1  2  1  0
  1 32  1  0
  1 33  1  0
  1 34  1  0
  2 30  1  0
  2  3  1  0
  2 35  1  6
  3  4  1  0
  3 36  1  0
  3 37  1  0
  4 20  1  0
  4  5  1  6
  4  6  1  0
  5 38  1  0
  6  7  1  0
  7 25  1  0
  7  8  1  6
  7  9  1  0
  8 39  1  0
  8 40  1  0
  8 41  1  0
  9 10  2  0
  9 11  1  0
 11 27  1  0
 11 12  1  1
 11 13  1  0
 12 42  1  0
 12 43  1  0
 12 44  1  0
 13 14  1  0
 13 27  1  0
 13 45  1  1
 14 15  1  0
 14 46  1  0
 14 47  1  0
 15 17  1  0
 15 16  1  0
 15 48  1  6
 16 17  1  0
 16 20  1  0
 16 49  1  1
 17 18  1  0
 17 19  1  0
 18 50  1  0
 18 51  1  0
 18 52  1  0
 19 53  1  0
 19 54  1  0
 19 55  1  0
 20 21  1  6
 20 22  1  0
 21 56  1  0
 22 23  1  0
 22 24  1  6
 22 25  1  0
 23 57  1  0
 23 58  1  0
 23 59  1  0
 24 60  1  0
 25 26  1  0
 25 61  1  1
 26 62  1  0
 27 30  1  0
 27 28  1  1
 28 29  1  0
 29 30  1  0
 29 63  1  0
 29 64  1  0
 30 31  1  1
 31 65  1  0
M  END
>  <i_m_ct_stereo_status>  (215) 
1

>  <s_m_source_file>  (215) 
/var/tmp/pbs.5076255.sched01/tmpl83nofxy/76c90atywu.sdf

>  <i_m_source_file_index>  (215) 
30

>  <i_lp_mmshare_version>  (215) 
48012

>  <i_f3d_flags>  (215) 
0

>  <s_epik_input>  (215) 
W0NIM11bQ0BdMShbT0hdKVtDQEBIXShbT0hdKVtDQF0oW0NIM10pKEMyPU8pT1tDQF0oW09IXSkoW0NIMl1bQ0BASF0oW0NIM10pW0NAXTMoW0NIMl1PNClbT0hdKVtDQF0xKFtPSF0pW0NASF0oQzUoW0NIM10pW0NIM10pW0NAQEhdNVtDSDJdW0NASF02W0NAQF0yKFtDQF0zNDYpW0NIM10=

>  <s_epik_cmdline>  (215) 
J2VwaWtfcHl0aG9uJywgJy1waHQnLCAnMi4wJywgJy1waCcsICc3LjAnLCAnLXRuJywgJzgnLCAnLW1hJywgJzIwMCcsICctaW1hZScsICc8aW5maWxlLm1hZT4nLCAnLW9tYWUnLCAnPG91dGZpbGUubWFlPic=

>  <r_lp_tautomer_probability>  (215) 
1

>  <r_epik_Ionization_Penalty>  (215) 
1.56511e-06

>  <r_epik_Ionization_Penalty_Charging>  (215) 
0

>  <r_epik_Ionization_Penalty_Neutral>  (215) 
1.56511e-06

>  <r_epik_State_Penalty>  (215) 
-0

>  <r_epik_Charging_Adjusted_Penalty>  (215) 
0

>  <i_epik_Tot_Q>  (215) 
0

>  <i_epik_Tot_abs_Q>  (215) 
0

>  <s_lp_Force_Field>  (215) 
OPLS3e

>  <r_lp_Energy>  (215) 
128.431

>  <b_lp_Chiralities_Consistent>  (215) 
1

>  <s_lp_Variant>  (215) 
77:0-1

>  <s_i_glide_gridfile>  (215) 
pfpi4k_grid

>  <i_i_glide_lignum>  (215) 
30

>  <i_i_glide_rotatable_bonds>  (215) 
5

>  <r_i_docking_score>  (215) 
-3.82777

>  <r_i_glide_ligand_efficiency>  (215) 
-0.123476

>  <r_i_glide_ligand_efficiency_sa>  (215) 
-0.387886

>  <r_i_glide_ligand_efficiency_ln>  (215) 
-0.863279

>  <r_i_glide_gscore>  (215) 
-3.82777

>  <r_i_glide_lipo>  (215) 
-0.0583267

>  <r_i_glide_hbond>  (215) 
0

>  <r_i_glide_metal>  (215) 
-0

>  <r_i_glide_rewards>  (215) 
-0.919241

>  <r_i_glide_evdw>  (215) 
-24.4967

>  <r_i_glide_ecoul>  (215) 
-10.5477

>  <r_i_glide_erotb>  (215) 
0

>  <r_i_glide_esite>  (215) 
-0.0432137

>  <r_i_glide_emodel>  (215) 
-47.7958

>  <r_i_glide_energy>  (215) 
-35.0444

>  <r_i_glide_einternal>  (215) 
2.66153

>  <r_i_glide_intrahb_reward>  (215) 
-0.5

>  <i_i_glide_confnum>  (215) 
1

>  <i_i_glide_posenum>  (215) 
32

>  <r_i_glide_eff_state_penalty>  (215) 
0

>  <ligand_id>  (215) 
77

>  <original_smiles>  (215) 
CC1CC2(O)OC3(C)C(=O)C4(C)C(CC5C(C5(C)C)C2(O)C(C)(O)C3O)C42OCC12O

>  <smiles>  (215) 
[H]OC1([H])C2(C([H])([H])[H])OC3(O[H])C([H])([H])C([H])(C([H])([H])[H])C4(O[H])C([H])([H])OC45C([H])(C([H])([H])C4([H])C([H])(C3(O[H])C1(O[H])C([H])([H])[H])C4(C([H])([H])[H])C([H])([H])[H])C5(C([H])([H])[H])C2=O

$$$$
77:0:1
     RDKit          3D

 65 70  0  0  1  0  0  0  0  0999 V2000
   -2.8619    3.0712    5.7805 C   0  0  0  0  0  0  0  0  0  0  0  0
   -1.8621    2.2719    4.9087 C   0  0  2  0  0  0  0  0  0  0  0  0
   -1.1944    1.0883    5.7090 C   0  0  0  0  0  0  0  0  0  0  0  0
    0.3509    0.8236    5.6379 C   0  0  1  0  0  0  0  0  0  0  0  0
    0.4883   -0.3027    4.8096 O   0  0  0  0  0  0  0  0  0  0  0  0
    0.9250    1.9395    5.0991 O   0  0  0  0  0  0  0  0  0  0  0  0
    2.2805    2.0352    4.7295 C   0  0  1  0  0  0  0  0  0  0  0  0
    2.5533    1.3045    3.3876 C   0  0  0  0  0  0  0  0  0  0  0  0
    2.5049    3.5522    4.5004 C   0  0  0  0  0  0  0  0  0  0  0  0
    3.6632    3.9559    4.4375 O   0  0  0  0  0  0  0  0  0  0  0  0
    1.3679    4.5878    4.3949 C   0  0  2  0  0  0  0  0  0  0  0  0
    1.8708    5.8424    3.6661 C   0  0  0  0  0  0  0  0  0  0  0  0
    0.4411    4.8822    5.6486 C   0  0  2  0  0  0  0  0  0  0  0  0
    0.8563    4.3860    7.0454 C   0  0  0  0  0  0  0  0  0  0  0  0
    0.1825    3.1365    7.5729 C   0  0  1  0  0  0  0  0  0  0  0  0
    1.1160    1.9716    7.9046 C   0  0  1  0  0  0  0  0  0  0  0  0
    0.2131    2.5734    8.9757 C   0  0  0  0  0  0  0  0  0  0  0  0
    0.8225    3.4133   10.0782 C   0  0  0  0  0  0  0  0  0  0  0  0
   -0.9486    1.7926    9.5556 C   0  0  0  0  0  0  0  0  0  0  0  0
    1.0749    0.6679    7.0457 C   0  0  1  0  0  0  0  0  0  0  0  0
    0.4963   -0.3569    7.8383 O   0  0  0  0  0  0  0  0  0  0  0  0
    2.5891    0.3264    6.7417 C   0  0  1  0  0  0  0  0  0  0  0  0
    3.4451    0.0436    8.0152 C   0  0  0  0  0  0  0  0  0  0  0  0
    2.7440   -0.8800    6.0098 O   0  0  0  0  0  0  0  0  0  0  0  0
    3.2016    1.4918    5.8815 C   0  0  1  0  0  0  0  0  0  0  0  0
    4.4743    1.0891    5.3966 O   0  0  0  0  0  0  0  0  0  0  0  0
   -0.1088    4.2454    4.4038 C   0  0  1  0  0  0  0  0  0  0  0  0
   -0.9416    5.1974    3.7231 O   0  0  0  0  0  0  0  0  0  0  0  0
   -1.9006    4.2391    3.2061 C   0  0  0  0  0  0  0  0  0  0  0  0
   -1.0822    3.1624    3.8884 C   0  0  2  0  0  0  0  0  0  0  0  0
   -0.5246    2.3451    2.8794 O   0  0  0  0  0  0  0  0  0  0  0  0
   -2.4425    4.0084    6.1488 H   0  0  0  0  0  0  0  0  0  0  0  0
   -3.2028    2.4971    6.6364 H   0  0  0  0  0  0  0  0  0  0  0  0
   -3.7580    3.3194    5.2213 H   0  0  0  0  0  0  0  0  0  0  0  0
   -2.5356    1.7231    4.2543 H   0  0  0  0  0  0  0  0  0  0  0  0
   -1.5159    1.1027    6.7404 H   0  0  0  0  0  0  0  0  0  0  0  0
   -1.6837    0.1811    5.3549 H   0  0  0  0  0  0  0  0  0  0  0  0
    1.3996   -0.6093    4.9041 H   0  0  0  0  0  0  0  0  0  0  0  0
    3.5646    1.4891    3.0298 H   0  0  0  0  0  0  0  0  0  0  0  0
    1.8841    1.6352    2.5920 H   0  0  0  0  0  0  0  0  0  0  0  0
    2.4693    0.2179    3.4606 H   0  0  0  0  0  0  0  0  0  0  0  0
    1.1059    6.6296    3.6346 H   0  0  0  0  0  0  0  0  0  0  0  0
    2.1560    5.6199    2.6430 H   0  0  0  0  0  0  0  0  0  0  0  0
    2.7243    6.2720    4.1821 H   0  0  0  0  0  0  0  0  0  0  0  0
    0.1607    5.9306    5.7256 H   0  0  0  0  0  0  0  0  0  0  0  0
    1.9433    4.2810    7.0638 H   0  0  0  0  0  0  0  0  0  0  0  0
    0.6302    5.1876    7.7486 H   0  0  0  0  0  0  0  0  0  0  0  0
   -0.8100    3.0284    7.2035 H   0  0  0  0  0  0  0  0  0  0  0  0
    2.1248    2.2754    8.1556 H   0  0  0  0  0  0  0  0  0  0  0  0
    1.1743    2.7720   10.8845 H   0  0  0  0  0  0  0  0  0  0  0  0
    0.0835    4.1100   10.4785 H   0  0  0  0  0  0  0  0  0  0  0  0
    1.6694    3.9842    9.6986 H   0  0  0  0  0  0  0  0  0  0  0  0
   -0.5919    1.1310   10.3450 H   0  0  0  0  0  0  0  0  0  0  0  0
   -1.4334    1.1786    8.8054 H   0  0  0  0  0  0  0  0  0  0  0  0
   -1.6991    2.4643    9.9816 H   0  0  0  0  0  0  0  0  0  0  0  0
    1.0435   -0.4684    8.6027 H   0  0  0  0  0  0  0  0  0  0  0  0
    3.6022    0.9095    8.6557 H   0  0  0  0  0  0  0  0  0  0  0  0
    4.4490   -0.3079    7.7578 H   0  0  0  0  0  0  0  0  0  0  0  0
    3.0066   -0.7339    8.6404 H   0  0  0  0  0  0  0  0  0  0  0  0
    3.6738   -1.0095    5.8979 H   0  0  0  0  0  0  0  0  0  0  0  0
    3.4279    2.3325    6.5409 H   0  0  0  0  0  0  0  0  0  0  0  0
    4.8108    1.8067    4.8797 H   0  0  0  0  0  0  0  0  0  0  0  0
   -2.9065    4.4234    3.5643 H   0  0  0  0  0  0  0  0  0  0  0  0
   -1.8838    4.1851    2.1301 H   0  0  0  0  0  0  0  0  0  0  0  0
   -0.1917    2.9485    2.2155 H   0  0  0  0  0  0  0  0  0  0  0  0
  1  2  1  0
  1 32  1  0
  1 33  1  0
  1 34  1  0
  2 30  1  0
  2  3  1  0
  2 35  1  6
  3  4  1  0
  3 36  1  0
  3 37  1  0
  4 20  1  0
  4  5  1  6
  4  6  1  0
  5 38  1  0
  6  7  1  0
  7 25  1  0
  7  8  1  6
  7  9  1  0
  8 39  1  0
  8 40  1  0
  8 41  1  0
  9 10  2  0
  9 11  1  0
 11 27  1  0
 11 12  1  6
 11 13  1  0
 12 42  1  0
 12 43  1  0
 12 44  1  0
 13 14  1  0
 13 27  1  0
 13 45  1  1
 14 15  1  0
 14 46  1  0
 14 47  1  0
 15 17  1  0
 15 16  1  0
 15 48  1  6
 16 17  1  0
 16 20  1  0
 16 49  1  1
 17 18  1  0
 17 19  1  0
 18 50  1  0
 18 51  1  0
 18 52  1  0
 19 53  1  0
 19 54  1  0
 19 55  1  0
 20 21  1  1
 20 22  1  0
 21 56  1  0
 22 23  1  0
 22 24  1  6
 22 25  1  0
 23 57  1  0
 23 58  1  0
 23 59  1  0
 24 60  1  0
 25 26  1  0
 25 61  1  1
 26 62  1  0
 27 30  1  0
 27 28  1  6
 28 29  1  0
 29 30  1  0
 29 63  1  0
 29 64  1  0
 30 31  1  6
 31 65  1  0
M  END
>  <i_m_ct_stereo_status>  (216) 
1

>  <s_m_source_file>  (216) 
/var/tmp/pbs.5076255.sched01/tmpl83nofxy/76c90atywu.sdf

>  <i_m_source_file_index>  (216) 
30

>  <i_lp_mmshare_version>  (216) 
48012

>  <i_f3d_flags>  (216) 
0

>  <s_epik_input>  (216) 
W0NIM11bQ0BdMShbT0hdKVtDQEBIXShbT0hdKVtDQF0oW0NIM10pKEMyPU8pT1tDQF0oW09IXSkoW0NIMl1bQ0BASF0oW0NIM10pW0NAXTMoW0NIMl1PNClbT0hdKVtDQF0xKFtPSF0pW0NASF0oQzUoW0NIM10pW0NIM10pW0NAQEhdNVtDSDJdW0NASF02W0NAQF0yKFtDQF0zNDYpW0NIM10=

>  <s_epik_cmdline>  (216) 
J2VwaWtfcHl0aG9uJywgJy1waHQnLCAnMi4wJywgJy1waCcsICc3LjAnLCAnLXRuJywgJzgnLCAnLW1hJywgJzIwMCcsICctaW1hZScsICc8aW5maWxlLm1hZT4nLCAnLW9tYWUnLCAnPG91dGZpbGUubWFlPic=

>  <r_lp_tautomer_probability>  (216) 
1

>  <r_epik_Ionization_Penalty>  (216) 
1.56511e-06

>  <r_epik_Ionization_Penalty_Charging>  (216) 
0

>  <r_epik_Ionization_Penalty_Neutral>  (216) 
1.56511e-06

>  <r_epik_State_Penalty>  (216) 
-0

>  <r_epik_Charging_Adjusted_Penalty>  (216) 
0

>  <i_epik_Tot_Q>  (216) 
0

>  <i_epik_Tot_abs_Q>  (216) 
0

>  <s_lp_Force_Field>  (216) 
OPLS3e

>  <r_lp_Energy>  (216) 
128.431

>  <b_lp_Chiralities_Consistent>  (216) 
1

>  <s_lp_Variant>  (216) 
77:0-1

>  <s_i_glide_gridfile>  (216) 
pfpi4k_grid

>  <i_i_glide_lignum>  (216) 
30

>  <i_i_glide_rotatable_bonds>  (216) 
5

>  <r_i_docking_score>  (216) 
-3.23237

>  <r_i_glide_ligand_efficiency>  (216) 
-0.10427

>  <r_i_glide_ligand_efficiency_sa>  (216) 
-0.327552

>  <r_i_glide_ligand_efficiency_ln>  (216) 
-0.728998

>  <r_i_glide_gscore>  (216) 
-3.23237

>  <r_i_glide_lipo>  (216) 
-0.0444639

>  <r_i_glide_hbond>  (216) 
-0.128117

>  <r_i_glide_metal>  (216) 
-0

>  <r_i_glide_rewards>  (216) 
-1.41924

>  <r_i_glide_evdw>  (216) 
-21.5598

>  <r_i_glide_ecoul>  (216) 
-3.64597

>  <r_i_glide_erotb>  (216) 
0

>  <r_i_glide_esite>  (216) 
-0.0156593

>  <r_i_glide_emodel>  (216) 
-42.2973

>  <r_i_glide_energy>  (216) 
-25.2058

>  <r_i_glide_einternal>  (216) 
1.18077

>  <r_i_glide_intrahb_reward>  (216) 
-1

>  <i_i_glide_confnum>  (216) 
2

>  <i_i_glide_posenum>  (216) 
22

>  <r_i_glide_eff_state_penalty>  (216) 
0

>  <ligand_id>  (216) 
77

>  <original_smiles>  (216) 
CC1CC2(O)OC3(C)C(=O)C4(C)C(CC5C(C5(C)C)C2(O)C(C)(O)C3O)C42OCC12O

>  <smiles>  (216) 
[H]OC1([H])C2(C([H])([H])[H])OC3(O[H])C([H])([H])C([H])(C([H])([H])[H])C4(O[H])C([H])([H])OC45C([H])(C([H])([H])C4([H])C([H])(C3(O[H])C1(O[H])C([H])([H])[H])C4(C([H])([H])[H])C([H])([H])[H])C5(C([H])([H])[H])C2=O

$$$$
77:0:2
     RDKit          3D

 65 70  0  0  1  0  0  0  0  0999 V2000
   -2.8351    2.9731    5.8125 C   0  0  0  0  0  0  0  0  0  0  0  0
   -1.8525    2.2013    4.8949 C   0  0  2  0  0  0  0  0  0  0  0  0
   -1.1901    0.9886    5.6622 C   0  0  0  0  0  0  0  0  0  0  0  0
    0.3570    0.7216    5.5569 C   0  0  1  0  0  0  0  0  0  0  0  0
    0.4790   -0.4092    4.6959 O   0  0  0  0  0  0  0  0  0  0  0  0
    0.9406    1.8373    5.0287 O   0  0  0  0  0  0  0  0  0  0  0  0
    2.2894    1.9468    4.6398 C   0  0  1  0  0  0  0  0  0  0  0  0
    2.5230    1.2397    3.2769 C   0  0  0  0  0  0  0  0  0  0  0  0
    2.5017    3.4744    4.4479 C   0  0  0  0  0  0  0  0  0  0  0  0
    3.6725    3.8444    4.3884 O   0  0  0  0  0  0  0  0  0  0  0  0
    1.3639    4.5244    4.3833 C   0  0  2  0  0  0  0  0  0  0  0  0
    1.8755    5.7703    3.6799 C   0  0  0  0  0  0  0  0  0  0  0  0
    0.4711    4.7677    5.6705 C   0  0  2  0  0  0  0  0  0  0  0  0
    0.9154    4.2423    7.0460 C   0  0  0  0  0  0  0  0  0  0  0  0
    0.2519    2.9848    7.5471 C   0  0  1  0  0  0  0  0  0  0  0  0
    1.1674    1.7992    7.8311 C   0  0  1  0  0  0  0  0  0  0  0  0
    0.2899    2.3801    8.9416 C   0  0  0  0  0  0  0  0  0  0  0  0
    0.9261    3.1820   10.0529 C   0  0  0  0  0  0  0  0  0  0  0  0
   -0.8613    1.5926    9.5192 C   0  0  0  0  0  0  0  0  0  0  0  0
    1.1096    0.5307    6.9515 C   0  0  1  0  0  0  0  0  0  0  0  0
    0.5607   -0.5495    7.6928 O   0  0  0  0  0  0  0  0  0  0  0  0
    2.6156    0.1762    6.6121 C   0  0  1  0  0  0  0  0  0  0  0  0
    3.4906   -0.1451    7.8547 C   0  0  0  0  0  0  0  0  0  0  0  0
    2.7362   -1.0201    5.8544 O   0  0  0  0  0  0  0  0  0  0  0  0
    3.2190    1.3563    5.7680 C   0  0  1  0  0  0  0  0  0  0  0  0
    4.4802    0.9661    5.2415 O   0  0  0  0  0  0  0  0  0  0  0  0
   -0.1106    4.1614    4.4036 C   0  0  1  0  0  0  0  0  0  0  0  0
   -0.9148    5.1174    3.7772 O   0  0  0  0  0  0  0  0  0  0  0  0
   -1.8979    4.2204    3.2322 C   0  0  0  0  0  0  0  0  0  0  0  0
   -1.0962    3.1292    3.8947 C   0  0  2  0  0  0  0  0  0  0  0  0
   -0.5492    2.3146    2.8746 O   0  0  0  0  0  0  0  0  0  0  0  0
   -2.4089    3.8988    6.2030 H   0  0  0  0  0  0  0  0  0  0  0  0
   -3.1684    2.3800    6.6641 H   0  0  0  0  0  0  0  0  0  0  0  0
   -3.7443    3.2460    5.2768 H   0  0  0  0  0  0  0  0  0  0  0  0
   -2.5543    1.6671    4.2455 H   0  0  0  0  0  0  0  0  0  0  0  0
   -1.4830    0.9708    6.7005 H   0  0  0  0  0  0  0  0  0  0  0  0
   -1.6888    0.0863    5.2873 H   0  0  0  0  0  0  0  0  0  0  0  0
    1.3779   -0.7076    4.7799 H   0  0  0  0  0  0  0  0  0  0  0  0
    3.5288    1.4315    2.9020 H   0  0  0  0  0  0  0  0  0  0  0  0
    1.8404    1.5972    2.5008 H   0  0  0  0  0  0  0  0  0  0  0  0
    2.4331    0.1559    3.3233 H   0  0  0  0  0  0  0  0  0  0  0  0
    1.1124    6.5615    3.6848 H   0  0  0  0  0  0  0  0  0  0  0  0
    2.1356    5.5740    2.6494 H   0  0  0  0  0  0  0  0  0  0  0  0
    2.7314    6.1844    4.1932 H   0  0  0  0  0  0  0  0  0  0  0  0
    0.1987    5.8182    5.7866 H   0  0  0  0  0  0  0  0  0  0  0  0
    1.9990    4.1223    7.0500 H   0  0  0  0  0  0  0  0  0  0  0  0
    0.7048    5.0197    7.7751 H   0  0  0  0  0  0  0  0  0  0  0  0
   -0.7596    2.8833    7.1930 H   0  0  0  0  0  0  0  0  0  0  0  0
    2.1851    2.0905    8.0832 H   0  0  0  0  0  0  0  0  0  0  0  0
    1.2900    2.5178   10.8349 H   0  0  0  0  0  0  0  0  0  0  0  0
    0.2008    3.8738   10.4825 H   0  0  0  0  0  0  0  0  0  0  0  0
    1.7732    3.7629    9.6726 H   0  0  0  0  0  0  0  0  0  0  0  0
   -0.4926    0.9051   10.2834 H   0  0  0  0  0  0  0  0  0  0  0  0
   -1.3625    0.9940    8.7578 H   0  0  0  0  0  0  0  0  0  0  0  0
   -1.5993    2.2531    9.9741 H   0  0  0  0  0  0  0  0  0  0  0  0
    0.8075   -1.3326    7.2463 H   0  0  0  0  0  0  0  0  0  0  0  0
    3.6633    0.7017    8.5146 H   0  0  0  0  0  0  0  0  0  0  0  0
    4.4842   -0.4953    7.5695 H   0  0  0  0  0  0  0  0  0  0  0  0
    3.0523   -0.9331    8.4658 H   0  0  0  0  0  0  0  0  0  0  0  0
    3.6561   -1.1455    5.7060 H   0  0  0  0  0  0  0  0  0  0  0  0
    3.4614    2.1794    6.4398 H   0  0  0  0  0  0  0  0  0  0  0  0
    4.8274    1.7046    4.7779 H   0  0  0  0  0  0  0  0  0  0  0  0
   -2.8952    4.3904    3.6197 H   0  0  0  0  0  0  0  0  0  0  0  0
   -1.9033    4.1836    2.1467 H   0  0  0  0  0  0  0  0  0  0  0  0
   -0.1995    2.9178    2.2275 H   0  0  0  0  0  0  0  0  0  0  0  0
  1  2  1  0
  1 32  1  0
  1 33  1  0
  1 34  1  0
  2 30  1  0
  2  3  1  0
  2 35  1  6
  3  4  1  0
  3 36  1  0
  3 37  1  0
  4 20  1  0
  4  5  1  6
  4  6  1  0
  5 38  1  0
  6  7  1  0
  7 25  1  0
  7  8  1  6
  7  9  1  0
  8 39  1  0
  8 40  1  0
  8 41  1  0
  9 10  2  0
  9 11  1  0
 11 27  1  0
 11 12  1  6
 11 13  1  0
 12 42  1  0
 12 43  1  0
 12 44  1  0
 13 14  1  0
 13 27  1  0
 13 45  1  1
 14 15  1  0
 14 46  1  0
 14 47  1  0
 15 17  1  0
 15 16  1  0
 15 48  1  6
 16 17  1  0
 16 20  1  0
 16 49  1  1
 17 18  1  0
 17 19  1  0
 18 50  1  0
 18 51  1  0
 18 52  1  0
 19 53  1  0
 19 54  1  0
 19 55  1  0
 20 21  1  1
 20 22  1  0
 21 56  1  0
 22 23  1  0
 22 24  1  6
 22 25  1  0
 23 57  1  0
 23 58  1  0
 23 59  1  0
 24 60  1  0
 25 26  1  0
 25 61  1  1
 26 62  1  0
 27 30  1  0
 27 28  1  6
 28 29  1  0
 29 30  1  0
 29 63  1  0
 29 64  1  0
 30 31  1  6
 31 65  1  0
M  END
>  <i_m_ct_stereo_status>  (217) 
1

>  <s_m_source_file>  (217) 
/var/tmp/pbs.5076255.sched01/tmpl83nofxy/76c90atywu.sdf

>  <i_m_source_file_index>  (217) 
30

>  <i_lp_mmshare_version>  (217) 
48012

>  <i_f3d_flags>  (217) 
0

>  <s_epik_input>  (217) 
W0NIM11bQ0BdMShbT0hdKVtDQEBIXShbT0hdKVtDQF0oW0NIM10pKEMyPU8pT1tDQF0oW09IXSkoW0NIMl1bQ0BASF0oW0NIM10pW0NAXTMoW0NIMl1PNClbT0hdKVtDQF0xKFtPSF0pW0NASF0oQzUoW0NIM10pW0NIM10pW0NAQEhdNVtDSDJdW0NASF02W0NAQF0yKFtDQF0zNDYpW0NIM10=

>  <s_epik_cmdline>  (217) 
J2VwaWtfcHl0aG9uJywgJy1waHQnLCAnMi4wJywgJy1waCcsICc3LjAnLCAnLXRuJywgJzgnLCAnLW1hJywgJzIwMCcsICctaW1hZScsICc8aW5maWxlLm1hZT4nLCAnLW9tYWUnLCAnPG91dGZpbGUubWFlPic=

>  <r_lp_tautomer_probability>  (217) 
1

>  <r_epik_Ionization_Penalty>  (217) 
1.56511e-06

>  <r_epik_Ionization_Penalty_Charging>  (217) 
0

>  <r_epik_Ionization_Penalty_Neutral>  (217) 
1.56511e-06

>  <r_epik_State_Penalty>  (217) 
-0

>  <r_epik_Charging_Adjusted_Penalty>  (217) 
0

>  <i_epik_Tot_Q>  (217) 
0

>  <i_epik_Tot_abs_Q>  (217) 
0

>  <s_lp_Force_Field>  (217) 
OPLS3e

>  <r_lp_Energy>  (217) 
128.431

>  <b_lp_Chiralities_Consistent>  (217) 
1

>  <s_lp_Variant>  (217) 
77:0-1

>  <s_i_glide_gridfile>  (217) 
pfpi4k_grid

>  <i_i_glide_lignum>  (217) 
30

>  <i_i_glide_rotatable_bonds>  (217) 
5

>  <r_i_docking_score>  (217) 
-3.16514

>  <r_i_glide_ligand_efficiency>  (217) 
-0.102101

>  <r_i_glide_ligand_efficiency_sa>  (217) 
-0.320739

>  <r_i_glide_ligand_efficiency_ln>  (217) 
-0.713836

>  <r_i_glide_gscore>  (217) 
-3.16514

>  <r_i_glide_lipo>  (217) 
-0.0577393

>  <r_i_glide_hbond>  (217) 
-0.126783

>  <r_i_glide_metal>  (217) 
-0

>  <r_i_glide_rewards>  (217) 
-1.41924

>  <r_i_glide_evdw>  (217) 
-21.7566

>  <r_i_glide_ecoul>  (217) 
-3.04894

>  <r_i_glide_erotb>  (217) 
0

>  <r_i_glide_esite>  (217) 
-0.0162055

>  <r_i_glide_emodel>  (217) 
-41.7343

>  <r_i_glide_energy>  (217) 
-24.8056

>  <r_i_glide_einternal>  (217) 
1.25571

>  <r_i_glide_intrahb_reward>  (217) 
-1

>  <i_i_glide_confnum>  (217) 
1

>  <i_i_glide_posenum>  (217) 
24

>  <r_i_glide_eff_state_penalty>  (217) 
0

>  <ligand_id>  (217) 
77

>  <original_smiles>  (217) 
CC1CC2(O)OC3(C)C(=O)C4(C)C(CC5C(C5(C)C)C2(O)C(C)(O)C3O)C42OCC12O

>  <smiles>  (217) 
[H]OC1([H])C2(C([H])([H])[H])OC3(O[H])C([H])([H])C([H])(C([H])([H])[H])C4(O[H])C([H])([H])OC45C([H])(C([H])([H])C4([H])C([H])(C3(O[H])C1(O[H])C([H])([H])[H])C4(C([H])([H])[H])C([H])([H])[H])C5(C([H])([H])[H])C2=O

$$$$
79:0:0
     RDKit          3D

 60 65  0  0  1  0  0  0  0  0999 V2000
    0.8539  -11.4467    3.1529 C   0  0  0  0  0  0  0  0  0  0  0  0
    1.1366  -10.2311    3.8317 O   0  0  0  0  0  0  0  0  0  0  0  0
    1.7644   -9.2245    3.0416 C   0  0  2  0  0  0  0  0  0  0  0  0
    3.2223   -9.6020    2.7081 C   0  0  0  0  0  0  0  0  0  0  0  0
    3.9680   -8.4646    1.9942 C   0  0  0  0  0  0  0  0  0  0  0  0
    3.8156   -7.0561    2.6496 C   0  0  2  0  0  0  0  0  0  0  0  0
    4.7433   -6.8602    3.8726 C   0  0  0  0  0  0  0  0  0  0  0  0
    4.5934   -7.8744    4.9842 C   0  0  0  0  0  0  0  0  0  0  0  0
    3.4578   -8.2914    5.5672 C   0  0  0  0  0  0  0  0  0  0  0  0
    2.0266   -7.8536    5.2855 C   0  0  1  0  0  0  0  0  0  0  0  0
    1.7510   -6.5619    6.0991 C   0  0  2  0  0  0  0  0  0  0  0  0
    2.2465   -6.6729    7.4652 O   0  0  0  0  0  0  0  0  0  0  0  0
    0.9529   -6.2962    7.9933 C   0  0  1  0  0  0  0  0  0  0  0  0
    0.9850   -4.9709    8.7649 C   0  0  2  0  0  0  0  0  0  0  0  0
   -0.4067   -4.5504    9.2790 C   0  0  0  0  0  0  0  0  0  0  0  0
   -0.9922   -3.8235    8.2091 O   0  0  0  0  0  0  0  0  0  0  0  0
   -0.0264   -3.7619    7.2161 C   0  0  2  0  0  0  0  0  0  0  0  0
   -0.0653   -2.3749    6.5664 C   0  0  0  0  0  0  0  0  0  0  0  0
   -0.2892   -4.9052    6.1955 C   0  0  0  0  0  0  0  0  0  0  0  0
    0.3427   -6.2346    6.6055 C   0  0  1  0  0  0  0  0  0  0  0  0
    1.2140   -3.9379    7.8208 O   0  0  0  0  0  0  0  0  0  0  0  0
    1.5725   -7.8448    3.7599 C   0  0  2  0  0  0  0  0  0  0  0  0
    0.0379   -7.5908    3.7488 C   0  0  0  0  0  0  0  0  0  0  0  0
    2.3327   -6.7264    2.9569 C   0  0  2  0  0  0  0  0  0  0  0  0
    1.8144   -6.2823    1.5755 C   0  0  0  0  0  0  0  0  0  0  0  0
    0.6404   -6.2557    1.2089 O   0  0  0  0  0  0  0  0  0  0  0  0
    2.9594   -5.8040    0.6954 C   0  0  0  0  0  0  0  0  0  0  0  0
    4.1908   -5.9958    1.5840 C   0  0  0  0  0  0  0  0  0  0  0  0
    0.2854  -12.1071    3.8097 H   0  0  0  0  0  0  0  0  0  0  0  0
    1.7679  -11.9747    2.8798 H   0  0  0  0  0  0  0  0  0  0  0  0
    0.2524  -11.2741    2.2568 H   0  0  0  0  0  0  0  0  0  0  0  0
    1.2416   -9.1674    2.0846 H   0  0  0  0  0  0  0  0  0  0  0  0
    3.7555   -9.9342    3.5933 H   0  0  0  0  0  0  0  0  0  0  0  0
    3.2326  -10.4713    2.0516 H   0  0  0  0  0  0  0  0  0  0  0  0
    5.0234   -8.7240    1.9034 H   0  0  0  0  0  0  0  0  0  0  0  0
    3.5952   -8.4401    0.9689 H   0  0  0  0  0  0  0  0  0  0  0  0
    5.7819   -6.9083    3.5381 H   0  0  0  0  0  0  0  0  0  0  0  0
    4.6152   -5.8662    4.3054 H   0  0  0  0  0  0  0  0  0  0  0  0
    5.5257   -8.2846    5.3480 H   0  0  0  0  0  0  0  0  0  0  0  0
    3.5467   -9.0116    6.3670 H   0  0  0  0  0  0  0  0  0  0  0  0
    1.4469   -8.6487    5.7584 H   0  0  0  0  0  0  0  0  0  0  0  0
    2.1991   -5.6754    5.6460 H   0  0  0  0  0  0  0  0  0  0  0  0
    0.5292   -7.1160    8.5751 H   0  0  0  0  0  0  0  0  0  0  0  0
    1.7275   -4.9805    9.5642 H   0  0  0  0  0  0  0  0  0  0  0  0
   -1.0288   -5.3978    9.5686 H   0  0  0  0  0  0  0  0  0  0  0  0
   -0.3231   -3.8845   10.1407 H   0  0  0  0  0  0  0  0  0  0  0  0
    0.1024   -1.6001    7.3160 H   0  0  0  0  0  0  0  0  0  0  0  0
   -1.0289   -2.2135    6.0809 H   0  0  0  0  0  0  0  0  0  0  0  0
    0.7237   -2.3069    5.8148 H   0  0  0  0  0  0  0  0  0  0  0  0
   -1.3689   -5.0121    6.0809 H   0  0  0  0  0  0  0  0  0  0  0  0
    0.1057   -4.5896    5.2289 H   0  0  0  0  0  0  0  0  0  0  0  0
   -0.3132   -7.0892    6.4603 H   0  0  0  0  0  0  0  0  0  0  0  0
   -0.2141   -6.5529    3.9548 H   0  0  0  0  0  0  0  0  0  0  0  0
   -0.4747   -8.2185    4.4792 H   0  0  0  0  0  0  0  0  0  0  0  0
   -0.4184   -7.8439    2.7924 H   0  0  0  0  0  0  0  0  0  0  0  0
    2.2975   -5.8081    3.5375 H   0  0  0  0  0  0  0  0  0  0  0  0
    3.0308   -6.4118   -0.2044 H   0  0  0  0  0  0  0  0  0  0  0  0
    2.8255   -4.7670    0.3905 H   0  0  0  0  0  0  0  0  0  0  0  0
    4.4229   -5.0404    2.0591 H   0  0  0  0  0  0  0  0  0  0  0  0
    5.0680   -6.2848    1.0009 H   0  0  0  0  0  0  0  0  0  0  0  0
  1  2  1  0
  1 29  1  0
  1 30  1  0
  1 31  1  0
  2  3  1  0
  3 22  1  0
  3  4  1  0
  3 32  1  6
  4  5  1  0
  4 33  1  0
  4 34  1  0
  6  5  1  6
  5 35  1  0
  5 36  1  0
  6 24  1  0
  6 28  1  0
  6  7  1  0
  7  8  1  0
  7 37  1  0
  7 38  1  0
  8  9  2  0
  8 39  1  0
  9 10  1  0
  9 40  1  0
 10 11  1  0
 10 22  1  0
 10 41  1  1
 11 20  1  0
 11 12  1  0
 11 42  1  6
 12 13  1  0
 13 20  1  0
 13 14  1  0
 13 43  1  1
 14 21  1  0
 14 15  1  0
 14 44  1  1
 15 16  1  0
 15 45  1  0
 15 46  1  0
 16 17  1  0
 17 18  1  6
 17 19  1  0
 17 21  1  0
 18 47  1  0
 18 48  1  0
 18 49  1  0
 19 20  1  0
 19 50  1  0
 19 51  1  0
 20 52  1  1
 22 23  1  1
 22 24  1  0
 23 53  1  0
 23 54  1  0
 23 55  1  0
 24 25  1  0
 24 56  1  1
 25 26  2  0
 25 27  1  0
 27 28  1  0
 27 57  1  0
 27 58  1  0
 28 59  1  0
 28 60  1  0
M  END
>  <i_m_ct_stereo_status>  (218) 
1

>  <s_m_source_file>  (218) 
/var/tmp/pbs.5076255.sched01/tmpl83nofxy/76c90atywu.sdf

>  <i_m_source_file_index>  (218) 
32

>  <i_lp_mmshare_version>  (218) 
48012

>  <i_f3d_flags>  (218) 
0

>  <s_epik_input>  (218) 
W0NIMl0xW0NIMl1DKD1PKVtDQEhdKFtDQF0xMjMpW0NAQF0oW0NIM10pKFtDQEhdKE9bQ0gzXSlbQ0gyXVtDSDJdMilbQ0BASF0oW0NIXT1bQ0hdW0NIMl0zKVtDQEhdKE80KVtDQEhdKFtDSDJdNSlbQ0BASF00W0NAQEhdKE82KVtDSDJdT1tDQF01NltDSDNd

>  <s_epik_cmdline>  (218) 
J2VwaWtfcHl0aG9uJywgJy1waHQnLCAnMi4wJywgJy1waCcsICc3LjAnLCAnLXRuJywgJzgnLCAnLW1hJywgJzIwMCcsICctaW1hZScsICc8aW5maWxlLm1hZT4nLCAnLW9tYWUnLCAnPG91dGZpbGUubWFlPic=

>  <r_lp_tautomer_probability>  (218) 
1

>  <r_epik_Ionization_Penalty>  (218) 
2.6658e-11

>  <r_epik_Ionization_Penalty_Charging>  (218) 
0

>  <r_epik_Ionization_Penalty_Neutral>  (218) 
2.6658e-11

>  <r_epik_State_Penalty>  (218) 
-0

>  <r_epik_Charging_Adjusted_Penalty>  (218) 
0

>  <i_epik_Tot_Q>  (218) 
0

>  <i_epik_Tot_abs_Q>  (218) 
0

>  <s_lp_Force_Field>  (218) 
OPLS3e

>  <r_lp_Energy>  (218) 
33.1151

>  <b_lp_Chiralities_Consistent>  (218) 
1

>  <s_lp_Variant>  (218) 
79:0-1

>  <s_i_glide_gridfile>  (218) 
pfpi4k_grid

>  <i_i_glide_lignum>  (218) 
32

>  <i_i_glide_rotatable_bonds>  (218) 
2

>  <r_i_docking_score>  (218) 
-2.53467

>  <r_i_glide_ligand_efficiency>  (218) 
-0.0905239

>  <r_i_glide_ligand_efficiency_sa>  (218) 
-0.274884

>  <r_i_glide_ligand_efficiency_ln>  (218) 
-0.585076

>  <r_i_glide_gscore>  (218) 
-2.53467

>  <r_i_glide_lipo>  (218) 
-0.174267

>  <r_i_glide_hbond>  (218) 
-0.198734

>  <r_i_glide_metal>  (218) 
-0

>  <r_i_glide_rewards>  (218) 
-0.760246

>  <r_i_glide_evdw>  (218) 
-18.3125

>  <r_i_glide_ecoul>  (218) 
-3.70815

>  <r_i_glide_erotb>  (218) 
0.129097

>  <r_i_glide_esite>  (218) 
-0.058672

>  <r_i_glide_emodel>  (218) 
-26.0447

>  <r_i_glide_energy>  (218) 
-22.0206

>  <r_i_glide_einternal>  (218) 
0.260202

>  <r_i_glide_intrahb_reward>  (218) 
-0

>  <i_i_glide_confnum>  (218) 
2

>  <i_i_glide_posenum>  (218) 
7

>  <r_i_glide_eff_state_penalty>  (218) 
0

>  <ligand_id>  (218) 
79

>  <original_smiles>  (218) 
COC1CCC23CC=CC(C4OC5C6COC(C)(CC54)O6)C1(C)C2C(=O)CC3

>  <smiles>  (218) 
[H]C1=C([H])C([H])(C2([H])OC3([H])C4([H])OC(C([H])([H])[H])(OC4([H])[H])C([H])([H])C32[H])C2(C([H])([H])[H])C([H])(OC([H])([H])[H])C([H])([H])C([H])([H])C3(C1([H])[H])C([H])([H])C([H])([H])C(=O)C32[H]

$$$$
79:0:1
     RDKit          3D

 60 65  0  0  1  0  0  0  0  0999 V2000
    3.2134   -8.3254    7.5437 C   0  0  0  0  0  0  0  0  0  0  0  0
    3.0764   -7.6306    6.3096 O   0  0  0  0  0  0  0  0  0  0  0  0
    1.9569   -8.0226    5.5154 C   0  0  2  0  0  0  0  0  0  0  0  0
    2.1164   -9.4677    4.9984 C   0  0  0  0  0  0  0  0  0  0  0  0
    1.0053   -9.8593    4.0147 C   0  0  0  0  0  0  0  0  0  0  0  0
    0.7096   -8.8161    2.8952 C   0  0  2  0  0  0  0  0  0  0  0  0
    1.7345   -8.8943    1.7371 C   0  0  0  0  0  0  0  0  0  0  0  0
    3.1915   -8.7285    2.1149 C   0  0  0  0  0  0  0  0  0  0  0  0
    3.7200   -7.7720    2.8934 C   0  0  0  0  0  0  0  0  0  0  0  0
    2.9959   -6.5995    3.5394 C   0  0  1  0  0  0  0  0  0  0  0  0
    2.8695   -5.4456    2.5072 C   0  0  2  0  0  0  0  0  0  0  0  0
    2.1045   -5.7983    1.3191 O   0  0  0  0  0  0  0  0  0  0  0  0
    3.2083   -5.4088    0.4647 C   0  0  1  0  0  0  0  0  0  0  0  0
    2.7975   -4.2625   -0.4585 C   0  0  2  0  0  0  0  0  0  0  0  0
    3.9559   -3.7724   -1.3461 C   0  0  0  0  0  0  0  0  0  0  0  0
    4.6343   -2.8117   -0.5531 O   0  0  0  0  0  0  0  0  0  0  0  0
    3.9009   -2.6881    0.6210 C   0  0  2  0  0  0  0  0  0  0  0  0
    3.8438   -1.2140    1.0287 C   0  0  0  0  0  0  0  0  0  0  0  0
    4.5633   -3.5827    1.7083 C   0  0  0  0  0  0  0  0  0  0  0  0
    4.0808   -5.0332    1.6523 C   0  0  1  0  0  0  0  0  0  0  0  0
    2.6098   -3.1300    0.3680 O   0  0  0  0  0  0  0  0  0  0  0  0
    1.7146   -6.9337    4.4104 C   0  0  2  0  0  0  0  0  0  0  0  0
    1.3456   -5.6307    5.1787 C   0  0  0  0  0  0  0  0  0  0  0  0
    0.5471   -7.3899    3.4735 C   0  0  2  0  0  0  0  0  0  0  0  0
   -0.8944   -7.4203    4.0029 C   0  0  0  0  0  0  0  0  0  0  0  0
   -1.3738   -6.6554    4.8314 O   0  0  0  0  0  0  0  0  0  0  0  0
   -1.7104   -8.4862    3.2974 C   0  0  0  0  0  0  0  0  0  0  0  0
   -0.7031   -9.1124    2.3314 C   0  0  0  0  0  0  0  0  0  0  0  0
    4.0217   -7.8789    8.1241 H   0  0  0  0  0  0  0  0  0  0  0  0
    3.4697   -9.3746    7.3913 H   0  0  0  0  0  0  0  0  0  0  0  0
    2.3022   -8.2696    8.1431 H   0  0  0  0  0  0  0  0  0  0  0  0
    1.0762   -8.0312    6.1610 H   0  0  0  0  0  0  0  0  0  0  0  0
    3.1019   -9.6222    4.5705 H   0  0  0  0  0  0  0  0  0  0  0  0
    2.0767  -10.1671    5.8318 H   0  0  0  0  0  0  0  0  0  0  0  0
    1.2433  -10.8243    3.5663 H   0  0  0  0  0  0  0  0  0  0  0  0
    0.1040  -10.0334    4.6057 H   0  0  0  0  0  0  0  0  0  0  0  0
    1.6624   -9.8778    1.2827 H   0  0  0  0  0  0  0  0  0  0  0  0
    1.4844   -8.1858    0.9451 H   0  0  0  0  0  0  0  0  0  0  0  0
    3.8556   -9.4621    1.6739 H   0  0  0  0  0  0  0  0  0  0  0  0
    4.7882   -7.7890    3.0583 H   0  0  0  0  0  0  0  0  0  0  0  0
    3.7292   -6.2497    4.2683 H   0  0  0  0  0  0  0  0  0  0  0  0
    2.4512   -4.5412    2.9499 H   0  0  0  0  0  0  0  0  0  0  0  0
    3.6233   -6.2690   -0.0664 H   0  0  0  0  0  0  0  0  0  0  0  0
    1.9056   -4.5090   -1.0356 H   0  0  0  0  0  0  0  0  0  0  0  0
    4.6270   -4.5740   -1.6582 H   0  0  0  0  0  0  0  0  0  0  0  0
    3.5687   -3.2840   -2.2432 H   0  0  0  0  0  0  0  0  0  0  0  0
    3.3815   -0.6229    0.2380 H   0  0  0  0  0  0  0  0  0  0  0  0
    4.8482   -0.8400    1.2295 H   0  0  0  0  0  0  0  0  0  0  0  0
    3.2395   -1.1162    1.9327 H   0  0  0  0  0  0  0  0  0  0  0  0
    5.6472   -3.5217    1.5797 H   0  0  0  0  0  0  0  0  0  0  0  0
    4.3421   -3.1561    2.6874 H   0  0  0  0  0  0  0  0  0  0  0  0
    4.9053   -5.7420    1.7468 H   0  0  0  0  0  0  0  0  0  0  0  0
    0.8866   -4.8778    4.5411 H   0  0  0  0  0  0  0  0  0  0  0  0
    2.2173   -5.1791    5.6520 H   0  0  0  0  0  0  0  0  0  0  0  0
    0.6506   -5.8208    5.9953 H   0  0  0  0  0  0  0  0  0  0  0  0
    0.4752   -6.6825    2.6547 H   0  0  0  0  0  0  0  0  0  0  0  0
   -2.0718   -9.2081    4.0260 H   0  0  0  0  0  0  0  0  0  0  0  0
   -2.5669   -8.0608    2.7756 H   0  0  0  0  0  0  0  0  0  0  0  0
   -0.8365   -8.6301    1.3610 H   0  0  0  0  0  0  0  0  0  0  0  0
   -0.8740  -10.1822    2.1880 H   0  0  0  0  0  0  0  0  0  0  0  0
  1  2  1  0
  1 29  1  0
  1 30  1  0
  1 31  1  0
  2  3  1  0
  3 22  1  0
  3  4  1  0
  3 32  1  1
  4  5  1  0
  4 33  1  0
  4 34  1  0
  6  5  1  1
  5 35  1  0
  5 36  1  0
  6 24  1  0
  6 28  1  0
  6  7  1  0
  7  8  1  0
  7 37  1  0
  7 38  1  0
  8  9  2  0
  8 39  1  0
  9 10  1  0
  9 40  1  0
 10 11  1  0
 10 22  1  0
 10 41  1  1
 11 20  1  0
 11 12  1  0
 11 42  1  1
 12 13  1  0
 13 20  1  0
 13 14  1  0
 13 43  1  6
 14 21  1  0
 14 15  1  0
 14 44  1  6
 15 16  1  0
 15 45  1  0
 15 46  1  0
 16 17  1  0
 17 18  1  1
 17 19  1  0
 17 21  1  0
 18 47  1  0
 18 48  1  0
 18 49  1  0
 19 20  1  0
 19 50  1  0
 19 51  1  0
 20 52  1  1
 22 23  1  1
 22 24  1  0
 23 53  1  0
 23 54  1  0
 23 55  1  0
 24 25  1  0
 24 56  1  6
 25 26  2  0
 25 27  1  0
 27 28  1  0
 27 57  1  0
 27 58  1  0
 28 59  1  0
 28 60  1  0
M  END
>  <i_m_ct_stereo_status>  (219) 
1

>  <s_m_source_file>  (219) 
/var/tmp/pbs.5076255.sched01/tmpl83nofxy/76c90atywu.sdf

>  <i_m_source_file_index>  (219) 
32

>  <i_lp_mmshare_version>  (219) 
48012

>  <i_f3d_flags>  (219) 
0

>  <s_epik_input>  (219) 
W0NIMl0xW0NIMl1DKD1PKVtDQEhdKFtDQF0xMjMpW0NAQF0oW0NIM10pKFtDQEhdKE9bQ0gzXSlbQ0gyXVtDSDJdMilbQ0BASF0oW0NIXT1bQ0hdW0NIMl0zKVtDQEhdKE80KVtDQEhdKFtDSDJdNSlbQ0BASF00W0NAQEhdKE82KVtDSDJdT1tDQF01NltDSDNd

>  <s_epik_cmdline>  (219) 
J2VwaWtfcHl0aG9uJywgJy1waHQnLCAnMi4wJywgJy1waCcsICc3LjAnLCAnLXRuJywgJzgnLCAnLW1hJywgJzIwMCcsICctaW1hZScsICc8aW5maWxlLm1hZT4nLCAnLW9tYWUnLCAnPG91dGZpbGUubWFlPic=

>  <r_lp_tautomer_probability>  (219) 
1

>  <r_epik_Ionization_Penalty>  (219) 
2.6658e-11

>  <r_epik_Ionization_Penalty_Charging>  (219) 
0

>  <r_epik_Ionization_Penalty_Neutral>  (219) 
2.6658e-11

>  <r_epik_State_Penalty>  (219) 
-0

>  <r_epik_Charging_Adjusted_Penalty>  (219) 
0

>  <i_epik_Tot_Q>  (219) 
0

>  <i_epik_Tot_abs_Q>  (219) 
0

>  <s_lp_Force_Field>  (219) 
OPLS3e

>  <r_lp_Energy>  (219) 
33.1151

>  <b_lp_Chiralities_Consistent>  (219) 
1

>  <s_lp_Variant>  (219) 
79:0-1

>  <s_i_glide_gridfile>  (219) 
pfpi4k_grid

>  <i_i_glide_lignum>  (219) 
32

>  <i_i_glide_rotatable_bonds>  (219) 
2

>  <r_i_docking_score>  (219) 
-2.42105

>  <r_i_glide_ligand_efficiency>  (219) 
-0.0864661

>  <r_i_glide_ligand_efficiency_sa>  (219) 
-0.262562

>  <r_i_glide_ligand_efficiency_ln>  (219) 
-0.55885

>  <r_i_glide_gscore>  (219) 
-2.42105

>  <r_i_glide_lipo>  (219) 
-0.138407

>  <r_i_glide_hbond>  (219) 
0

>  <r_i_glide_metal>  (219) 
-0

>  <r_i_glide_rewards>  (219) 
-0.760246

>  <r_i_glide_evdw>  (219) 
-22.1728

>  <r_i_glide_ecoul>  (219) 
-3.17767

>  <r_i_glide_erotb>  (219) 
0.129097

>  <r_i_glide_esite>  (219) 
-0.0662064

>  <r_i_glide_emodel>  (219) 
-29.1083

>  <r_i_glide_energy>  (219) 
-25.3504

>  <r_i_glide_einternal>  (219) 
0.195555

>  <r_i_glide_intrahb_reward>  (219) 
-0

>  <i_i_glide_confnum>  (219) 
4

>  <i_i_glide_posenum>  (219) 
38

>  <r_i_glide_eff_state_penalty>  (219) 
0

>  <ligand_id>  (219) 
79

>  <original_smiles>  (219) 
COC1CCC23CC=CC(C4OC5C6COC(C)(CC54)O6)C1(C)C2C(=O)CC3

>  <smiles>  (219) 
[H]C1=C([H])C([H])(C2([H])OC3([H])C4([H])OC(C([H])([H])[H])(OC4([H])[H])C([H])([H])C32[H])C2(C([H])([H])[H])C([H])(OC([H])([H])[H])C([H])([H])C([H])([H])C3(C1([H])[H])C([H])([H])C([H])([H])C(=O)C32[H]

$$$$
79:0:2
     RDKit          3D

 60 65  0  0  1  0  0  0  0  0999 V2000
    8.6463   -5.0028    0.2829 C   0  0  0  0  0  0  0  0  0  0  0  0
    7.2498   -5.0974    0.5320 O   0  0  0  0  0  0  0  0  0  0  0  0
    6.4602   -3.9797    0.1183 C   0  0  2  0  0  0  0  0  0  0  0  0
    6.9806   -2.6721    0.7275 C   0  0  0  0  0  0  0  0  0  0  0  0
    6.0659   -1.4783    0.4681 C   0  0  0  0  0  0  0  0  0  0  0  0
    4.5580   -1.7374    0.7558 C   0  0  2  0  0  0  0  0  0  0  0  0
    4.2100   -1.6328    2.2608 C   0  0  0  0  0  0  0  0  0  0  0  0
    4.9801   -2.5520    3.1909 C   0  0  0  0  0  0  0  0  0  0  0  0
    5.1825   -3.8743    3.0421 C   0  0  0  0  0  0  0  0  0  0  0  0
    4.6782   -4.7719    1.9207 C   0  0  1  0  0  0  0  0  0  0  0  0
    3.2284   -5.2248    2.2596 C   0  0  2  0  0  0  0  0  0  0  0  0
    2.3937   -4.1540    2.7836 O   0  0  0  0  0  0  0  0  0  0  0  0
    2.0958   -4.9351    3.9686 C   0  0  1  0  0  0  0  0  0  0  0  0
    0.5979   -5.2167    4.0714 C   0  0  2  0  0  0  0  0  0  0  0  0
    0.2257   -6.1088    5.2676 C   0  0  0  0  0  0  0  0  0  0  0  0
    0.3703   -7.4336    4.7843 O   0  0  0  0  0  0  0  0  0  0  0  0
    0.7060   -7.3314    3.4435 C   0  0  2  0  0  0  0  0  0  0  0  0
   -0.0273   -8.4215    2.6578 C   0  0  0  0  0  0  0  0  0  0  0  0
    2.2554   -7.4331    3.3087 C   0  0  0  0  0  0  0  0  0  0  0  0
    2.9667   -6.0900    3.5010 C   0  0  1  0  0  0  0  0  0  0  0  0
    0.2627   -6.0883    2.9971 O   0  0  0  0  0  0  0  0  0  0  0  0
    4.9542   -4.2960    0.4316 C   0  0  2  0  0  0  0  0  0  0  0  0
    4.6112   -5.5012   -0.4785 C   0  0  0  0  0  0  0  0  0  0  0  0
    4.0627   -3.0492    0.0994 C   0  0  2  0  0  0  0  0  0  0  0  0
    3.8735   -2.6111   -1.3664 C   0  0  0  0  0  0  0  0  0  0  0  0
    3.8956   -3.3389   -2.3559 O   0  0  0  0  0  0  0  0  0  0  0  0
    3.6680   -1.1129   -1.4639 C   0  0  0  0  0  0  0  0  0  0  0  0
    3.7627   -0.6536   -0.0031 C   0  0  0  0  0  0  0  0  0  0  0  0
    9.1253   -5.9612    0.4891 H   0  0  0  0  0  0  0  0  0  0  0  0
    9.1152   -4.2677    0.9395 H   0  0  0  0  0  0  0  0  0  0  0  0
    8.8620   -4.7315   -0.7517 H   0  0  0  0  0  0  0  0  0  0  0  0
    6.5727   -3.8671   -0.9628 H   0  0  0  0  0  0  0  0  0  0  0  0
    7.1150   -2.8248    1.7822 H   0  0  0  0  0  0  0  0  0  0  0  0
    7.9655   -2.4270    0.3309 H   0  0  0  0  0  0  0  0  0  0  0  0
    6.4145   -0.6295    1.0554 H   0  0  0  0  0  0  0  0  0  0  0  0
    6.2042   -1.1904   -0.5741 H   0  0  0  0  0  0  0  0  0  0  0  0
    4.3955   -0.6117    2.5959 H   0  0  0  0  0  0  0  0  0  0  0  0
    3.1422   -1.7995    2.4141 H   0  0  0  0  0  0  0  0  0  0  0  0
    5.3736   -2.0719    4.0769 H   0  0  0  0  0  0  0  0  0  0  0  0
    5.7429   -4.3861    3.8119 H   0  0  0  0  0  0  0  0  0  0  0  0
    5.2944   -5.6640    2.0355 H   0  0  0  0  0  0  0  0  0  0  0  0
    2.7186   -5.6868    1.4132 H   0  0  0  0  0  0  0  0  0  0  0  0
    2.5076   -4.4723    4.8686 H   0  0  0  0  0  0  0  0  0  0  0  0
    0.0227   -4.2918    4.0705 H   0  0  0  0  0  0  0  0  0  0  0  0
    0.8504   -5.9319    6.1437 H   0  0  0  0  0  0  0  0  0  0  0  0
   -0.8179   -5.9559    5.5531 H   0  0  0  0  0  0  0  0  0  0  0  0
   -1.1052   -8.3341    2.7953 H   0  0  0  0  0  0  0  0  0  0  0  0
    0.2989   -9.4080    2.9919 H   0  0  0  0  0  0  0  0  0  0  0  0
    0.2036   -8.3089    1.5986 H   0  0  0  0  0  0  0  0  0  0  0  0
    2.6063   -8.1734    4.0317 H   0  0  0  0  0  0  0  0  0  0  0  0
    2.4883   -7.8353    2.3217 H   0  0  0  0  0  0  0  0  0  0  0  0
    3.8607   -6.1649    4.1210 H   0  0  0  0  0  0  0  0  0  0  0  0
    3.5344   -5.6293   -0.5718 H   0  0  0  0  0  0  0  0  0  0  0  0
    5.0258   -6.4391   -0.1078 H   0  0  0  0  0  0  0  0  0  0  0  0
    5.0080   -5.3841   -1.4860 H   0  0  0  0  0  0  0  0  0  0  0  0
    3.0522   -3.2593    0.4468 H   0  0  0  0  0  0  0  0  0  0  0  0
    4.4574   -0.6739   -2.0771 H   0  0  0  0  0  0  0  0  0  0  0  0
    2.7043   -0.8726   -1.9153 H   0  0  0  0  0  0  0  0  0  0  0  0
    2.7520   -0.5737    0.4025 H   0  0  0  0  0  0  0  0  0  0  0  0
    4.2233    0.3298    0.0857 H   0  0  0  0  0  0  0  0  0  0  0  0
  1  2  1  0
  1 29  1  0
  1 30  1  0
  1 31  1  0
  2  3  1  0
  3 22  1  0
  3  4  1  0
  3 32  1  6
  4  5  1  0
  4 33  1  0
  4 34  1  0
  6  5  1  1
  5 35  1  0
  5 36  1  0
  6 24  1  0
  6 28  1  0
  6  7  1  0
  7  8  1  0
  7 37  1  0
  7 38  1  0
  8  9  2  0
  8 39  1  0
  9 10  1  0
  9 40  1  0
 10 11  1  0
 10 22  1  0
 10 41  1  1
 11 20  1  0
 11 12  1  0
 11 42  1  6
 12 13  1  0
 13 20  1  0
 13 14  1  0
 13 43  1  1
 14 21  1  0
 14 15  1  0
 14 44  1  6
 15 16  1  0
 15 45  1  0
 15 46  1  0
 16 17  1  0
 17 18  1  6
 17 19  1  0
 17 21  1  0
 18 47  1  0
 18 48  1  0
 18 49  1  0
 19 20  1  0
 19 50  1  0
 19 51  1  0
 20 52  1  1
 22 23  1  6
 22 24  1  0
 23 53  1  0
 23 54  1  0
 23 55  1  0
 24 25  1  0
 24 56  1  1
 25 26  2  0
 25 27  1  0
 27 28  1  0
 27 57  1  0
 27 58  1  0
 28 59  1  0
 28 60  1  0
M  END
>  <i_m_ct_stereo_status>  (220) 
1

>  <s_m_source_file>  (220) 
/var/tmp/pbs.5076255.sched01/tmpl83nofxy/76c90atywu.sdf

>  <i_m_source_file_index>  (220) 
32

>  <i_lp_mmshare_version>  (220) 
48012

>  <i_f3d_flags>  (220) 
0

>  <s_epik_input>  (220) 
W0NIMl0xW0NIMl1DKD1PKVtDQEhdKFtDQF0xMjMpW0NAQF0oW0NIM10pKFtDQEhdKE9bQ0gzXSlbQ0gyXVtDSDJdMilbQ0BASF0oW0NIXT1bQ0hdW0NIMl0zKVtDQEhdKE80KVtDQEhdKFtDSDJdNSlbQ0BASF00W0NAQEhdKE82KVtDSDJdT1tDQF01NltDSDNd

>  <s_epik_cmdline>  (220) 
J2VwaWtfcHl0aG9uJywgJy1waHQnLCAnMi4wJywgJy1waCcsICc3LjAnLCAnLXRuJywgJzgnLCAnLW1hJywgJzIwMCcsICctaW1hZScsICc8aW5maWxlLm1hZT4nLCAnLW9tYWUnLCAnPG91dGZpbGUubWFlPic=

>  <r_lp_tautomer_probability>  (220) 
1

>  <r_epik_Ionization_Penalty>  (220) 
2.6658e-11

>  <r_epik_Ionization_Penalty_Charging>  (220) 
0

>  <r_epik_Ionization_Penalty_Neutral>  (220) 
2.6658e-11

>  <r_epik_State_Penalty>  (220) 
-0

>  <r_epik_Charging_Adjusted_Penalty>  (220) 
0

>  <i_epik_Tot_Q>  (220) 
0

>  <i_epik_Tot_abs_Q>  (220) 
0

>  <s_lp_Force_Field>  (220) 
OPLS3e

>  <r_lp_Energy>  (220) 
33.1151

>  <b_lp_Chiralities_Consistent>  (220) 
1

>  <s_lp_Variant>  (220) 
79:0-1

>  <s_i_glide_gridfile>  (220) 
pfpi4k_grid

>  <i_i_glide_lignum>  (220) 
32

>  <i_i_glide_rotatable_bonds>  (220) 
2

>  <r_i_docking_score>  (220) 
-2.38694

>  <r_i_glide_ligand_efficiency>  (220) 
-0.085248

>  <r_i_glide_ligand_efficiency_sa>  (220) 
-0.258863

>  <r_i_glide_ligand_efficiency_ln>  (220) 
-0.550977

>  <r_i_glide_gscore>  (220) 
-2.38694

>  <r_i_glide_lipo>  (220) 
-0.447319

>  <r_i_glide_hbond>  (220) 
-0.111494

>  <r_i_glide_metal>  (220) 
-0

>  <r_i_glide_rewards>  (220) 
-0.760246

>  <r_i_glide_evdw>  (220) 
-21.5159

>  <r_i_glide_ecoul>  (220) 
-0.454856

>  <r_i_glide_erotb>  (220) 
0.129097

>  <r_i_glide_esite>  (220) 
-0.0529592

>  <r_i_glide_emodel>  (220) 
-25.0657

>  <r_i_glide_energy>  (220) 
-21.9708

>  <r_i_glide_einternal>  (220) 
1.36564

>  <r_i_glide_intrahb_reward>  (220) 
-0

>  <i_i_glide_confnum>  (220) 
2

>  <i_i_glide_posenum>  (220) 
8

>  <r_i_glide_eff_state_penalty>  (220) 
0

>  <ligand_id>  (220) 
79

>  <original_smiles>  (220) 
COC1CCC23CC=CC(C4OC5C6COC(C)(CC54)O6)C1(C)C2C(=O)CC3

>  <smiles>  (220) 
[H]C1=C([H])C([H])(C2([H])OC3([H])C4([H])OC(C([H])([H])[H])(OC4([H])[H])C([H])([H])C32[H])C2(C([H])([H])[H])C([H])(OC([H])([H])[H])C([H])([H])C([H])([H])C3(C1([H])[H])C([H])([H])C([H])([H])C(=O)C32[H]

$$$$
81:0:0
     RDKit          3D

 99106  0  0  1  0  0  0  0  0999 V2000
    8.7986    0.9724    8.9294 C   0  0  0  0  0  0  0  0  0  0  0  0
    7.4284    0.3828    8.6193 C   0  0  0  0  0  0  0  0  0  0  0  0
    7.1618   -0.7919    8.8744 O   0  0  0  0  0  0  0  0  0  0  0  0
    6.6047    1.2727    8.0278 O   0  0  0  0  0  0  0  0  0  0  0  0
    5.2993    0.8956    7.5723 C   0  0  2  0  0  0  0  0  0  0  0  0
    5.4992    0.1264    6.2104 C   0  0  0  0  0  0  0  0  0  0  0  0
    4.7218    0.4351    4.8839 C   0  0  1  0  0  0  0  0  0  0  0  0
    5.2547   -0.4113    3.7535 C   0  0  0  0  0  0  0  0  0  0  0  0
    4.4839   -0.2965    2.6856 C   0  0  0  0  0  0  0  0  0  0  0  0
    4.7035   -0.8919    1.3127 C   0  0  0  0  0  0  0  0  0  0  0  0
    3.3393    0.6244    2.9952 C   0  0  0  0  0  0  0  0  0  0  0  0
    3.1473    0.5810    4.5753 C   0  0  1  0  0  0  0  0  0  0  0  0
    2.4088   -0.6311    4.5247 O   0  0  0  0  0  0  0  0  0  0  0  0
    2.2544    1.6913    5.4058 C   0  0  2  0  0  0  0  0  0  0  0  0
    3.3656    3.0424    5.6456 C   0  0  1  0  0  0  0  0  0  0  0  0
    2.6660    4.4388    5.6250 C   0  0  0  0  0  0  0  0  0  0  0  0
    1.3736    4.1284    6.2697 C   0  0  2  0  0  0  0  0  0  0  0  0
    1.5264    3.2344    7.6197 C   0  0  1  0  0  0  0  0  0  0  0  0
   -0.0022    2.7601    8.0296 C   0  0  2  0  0  0  0  0  0  0  0  0
    0.4118    1.4020    8.1331 C   0  0  1  0  0  0  0  0  0  0  0  0
   -0.3932    0.4645    8.8644 O   0  0  0  0  0  0  0  0  0  0  0  0
    1.2729    0.9062    6.7777 C   0  0  1  0  0  0  0  0  0  0  0  0
   -0.0577    0.2660    6.1937 C   0  0  1  0  0  0  0  0  0  0  0  0
   -0.3106   -1.0825    6.5620 O   0  0  0  0  0  0  0  0  0  0  0  0
   -1.3863    1.1893    6.2851 C   0  0  0  0  0  0  0  0  0  0  0  0
   -1.4128    2.4677    7.2889 C   0  0  0  0  0  0  0  0  0  0  0  0
   -2.5479    2.1990    8.3271 C   0  0  0  0  0  0  0  0  0  0  0  0
   -2.0325    3.7539    6.6875 C   0  0  0  0  0  0  0  0  0  0  0  0
    2.3407    0.4284    7.8331 C   0  0  0  0  0  0  0  0  0  0  0  0
    2.2358   -0.1627    9.3378 C   0  0  0  0  0  0  0  0  0  0  0  0
    2.9779   -0.9274    7.3670 C   0  0  0  0  0  0  0  0  0  0  0  0
    2.8122    1.9915    7.9622 C   0  0  1  0  0  0  0  0  0  0  0  0
    4.3597    2.1412    7.7257 C   0  0  2  0  0  0  0  0  0  0  0  0
    4.5470    3.2390    6.7445 C   0  0  1  0  0  0  0  0  0  0  0  0
    5.9502    3.4139    6.0938 C   0  0  0  0  0  0  0  0  0  0  0  0
    4.3558    4.4265    7.5791 O   0  0  0  0  0  0  0  0  0  0  0  0
    5.2330    5.0313    8.4755 C   0  0  0  0  0  0  0  0  0  0  0  0
    4.5709    6.1622    9.2416 C   0  0  0  0  0  0  0  0  0  0  0  0
    6.4030    4.7392    8.7381 O   0  0  0  0  0  0  0  0  0  0  0  0
    0.6302    3.4603    5.0785 C   0  0  1  0  0  0  0  0  0  0  0  0
   -0.3698    4.0784    4.1209 C   0  0  0  0  0  0  0  0  0  0  0  0
   -0.6912    5.2664    4.0912 O   0  0  0  0  0  0  0  0  0  0  0  0
   -0.8022    2.9551    3.2824 C   0  0  0  0  0  0  0  0  0  0  0  0
    0.0804    1.9405    3.4463 C   0  0  0  0  0  0  0  0  0  0  0  0
   -0.0281    0.6852    2.5993 C   0  0  0  0  0  0  0  0  0  0  0  0
    1.3267    2.4019    4.2576 C   0  0  2  0  0  0  0  0  0  0  0  0
    2.0633    3.0525    3.2199 O   0  0  0  0  0  0  0  0  0  0  0  0
    8.7133    1.7701    9.6693 H   0  0  0  0  0  0  0  0  0  0  0  0
    9.2442    1.3828    8.0263 H   0  0  0  0  0  0  0  0  0  0  0  0
    9.4673    0.2085    9.3288 H   0  0  0  0  0  0  0  0  0  0  0  0
    4.9686    0.1857    8.3272 H   0  0  0  0  0  0  0  0  0  0  0  0
    6.5411    0.2823    5.9287 H   0  0  0  0  0  0  0  0  0  0  0  0
    5.5168   -0.9478    6.4085 H   0  0  0  0  0  0  0  0  0  0  0  0
    5.1412    1.3735    4.5563 H   0  0  0  0  0  0  0  0  0  0  0  0
    6.1582   -0.9895    3.8016 H   0  0  0  0  0  0  0  0  0  0  0  0
    3.8449   -1.5038    1.0337 H   0  0  0  0  0  0  0  0  0  0  0  0
    5.5937   -1.5235    1.2884 H   0  0  0  0  0  0  0  0  0  0  0  0
    4.8192   -0.1072    0.5645 H   0  0  0  0  0  0  0  0  0  0  0  0
    3.7400    1.5747    2.6674 H   0  0  0  0  0  0  0  0  0  0  0  0
    2.4906    0.3842    2.3686 H   0  0  0  0  0  0  0  0  0  0  0  0
    1.6567   -0.4656    3.9846 H   0  0  0  0  0  0  0  0  0  0  0  0
    3.9254    3.0758    4.7189 H   0  0  0  0  0  0  0  0  0  0  0  0
    3.1322    5.3241    6.0458 H   0  0  0  0  0  0  0  0  0  0  0  0
    2.5264    4.8468    4.6277 H   0  0  0  0  0  0  0  0  0  0  0  0
    0.8642    5.0636    6.5123 H   0  0  0  0  0  0  0  0  0  0  0  0
    1.7731    4.0033    8.3521 H   0  0  0  0  0  0  0  0  0  0  0  0
   -0.2443    3.2384    8.9831 H   0  0  0  0  0  0  0  0  0  0  0  0
    0.8515    1.6637    9.0838 H   0  0  0  0  0  0  0  0  0  0  0  0
   -0.5128    0.7881    9.7439 H   0  0  0  0  0  0  0  0  0  0  0  0
    0.1022    0.1064    5.1441 H   0  0  0  0  0  0  0  0  0  0  0  0
    0.4608   -1.5838    6.3379 H   0  0  0  0  0  0  0  0  0  0  0  0
   -1.6779    1.5146    5.2916 H   0  0  0  0  0  0  0  0  0  0  0  0
   -2.2277    0.5359    6.5113 H   0  0  0  0  0  0  0  0  0  0  0  0
   -3.5481    2.3626    7.9226 H   0  0  0  0  0  0  0  0  0  0  0  0
   -2.4606    2.8030    9.2323 H   0  0  0  0  0  0  0  0  0  0  0  0
   -2.5868    1.1723    8.6241 H   0  0  0  0  0  0  0  0  0  0  0  0
   -2.5375    3.5609    5.7333 H   0  0  0  0  0  0  0  0  0  0  0  0
   -1.2926    4.5298    6.5803 H   0  0  0  0  0  0  0  0  0  0  0  0
   -2.7717    4.2282    7.3299 H   0  0  0  0  0  0  0  0  0  0  0  0
    3.2144   -0.4478    9.7316 H   0  0  0  0  0  0  0  0  0  0  0  0
    1.5974   -1.0511    9.4049 H   0  0  0  0  0  0  0  0  0  0  0  0
    1.9374    0.4903   10.1598 H   0  0  0  0  0  0  0  0  0  0  0  0
    3.7275   -1.3829    8.0138 H   0  0  0  0  0  0  0  0  0  0  0  0
    3.4446   -0.9937    6.4321 H   0  0  0  0  0  0  0  0  0  0  0  0
    2.1913   -1.6807    7.2932 H   0  0  0  0  0  0  0  0  0  0  0  0
    2.8500    2.1417    9.0373 H   0  0  0  0  0  0  0  0  0  0  0  0
    4.7220    2.4874    8.6922 H   0  0  0  0  0  0  0  0  0  0  0  0
    6.3390    2.4936    5.6797 H   0  0  0  0  0  0  0  0  0  0  0  0
    6.7982    3.6218    6.7186 H   0  0  0  0  0  0  0  0  0  0  0  0
    5.9245    4.1869    5.3238 H   0  0  0  0  0  0  0  0  0  0  0  0
    3.7329    5.7758    9.8218 H   0  0  0  0  0  0  0  0  0  0  0  0
    4.2243    6.9559    8.5780 H   0  0  0  0  0  0  0  0  0  0  0  0
    5.2910    6.5907    9.9427 H   0  0  0  0  0  0  0  0  0  0  0  0
   -0.0463    2.8683    5.6047 H   0  0  0  0  0  0  0  0  0  0  0  0
   -1.6708    2.9717    2.6443 H   0  0  0  0  0  0  0  0  0  0  0  0
    0.3235   -0.2164    3.0931 H   0  0  0  0  0  0  0  0  0  0  0  0
    0.5028    0.8002    1.6520 H   0  0  0  0  0  0  0  0  0  0  0  0
   -1.0761    0.5168    2.3471 H   0  0  0  0  0  0  0  0  0  0  0  0
    1.4670    3.3929    2.5617 H   0  0  0  0  0  0  0  0  0  0  0  0
  1  2  1  0
  1 48  1  0
  1 49  1  0
  1 50  1  0
  2  3  2  0
  2  4  1  0
  4  5  1  0
  5 33  1  0
  5  6  1  0
  5 51  1  1
  6  7  1  0
  6 52  1  0
  6 53  1  0
  7 12  1  0
  7  8  1  0
  7 54  1  6
  8  9  2  0
  8 55  1  0
  9 10  1  0
  9 11  1  0
 10 56  1  0
 10 57  1  0
 10 58  1  0
 11 12  1  0
 11 59  1  0
 11 60  1  0
 12 13  1  6
 14 12  1  6
 13 61  1  0
 14 22  1  0
 14 46  1  0
 14 15  1  0
 15 34  1  0
 15 16  1  0
 15 62  1  6
 16 17  1  0
 16 63  1  0
 16 64  1  0
 17 18  1  0
 17 40  1  0
 17 65  1  1
 18 32  1  0
 18 19  1  0
 18 66  1  1
 19 26  1  0
 19 20  1  0
 19 67  1  1
 20 21  1  0
 20 22  1  0
 20 68  1  1
 21 69  1  0
 22 23  1  0
 22 29  1  1
 23 24  1  0
 23 25  1  0
 23 70  1  6
 24 71  1  0
 25 26  1  0
 25 72  1  0
 25 73  1  0
 26 27  1  0
 26 28  1  0
 27 74  1  0
 27 75  1  0
 27 76  1  0
 28 77  1  0
 28 78  1  0
 28 79  1  0
 29 30  1  0
 29 31  1  0
 29 32  1  0
 30 80  1  0
 30 81  1  0
 30 82  1  0
 31 83  1  0
 31 84  1  0
 31 85  1  0
 32 33  1  0
 32 86  1  1
 33 34  1  0
 33 87  1  1
 34 35  1  0
 34 36  1  1
 35 88  1  0
 35 89  1  0
 35 90  1  0
 36 37  1  0
 37 38  1  0
 37 39  2  0
 38 91  1  0
 38 92  1  0
 38 93  1  0
 40 46  1  0
 40 41  1  0
 40 94  1  1
 41 42  2  0
 41 43  1  0
 43 44  2  0
 43 95  1  0
 44 45  1  0
 44 46  1  0
 45 96  1  0
 45 97  1  0
 45 98  1  0
 46 47  1  6
 47 99  1  0
M  END
>  <i_m_ct_stereo_status>  (221) 
1

>  <s_m_source_file>  (221) 
/var/tmp/pbs.5076255.sched01/tmpl83nofxy/76c90atywu.sdf

>  <i_m_source_file_index>  (221) 
34

>  <i_lp_mmshare_version>  (221) 
48012

>  <i_f3d_flags>  (221) 
0

>  <s_epik_input>  (221) 
W0NIXTE9QyhbQ0gzXSlbQ0gyXVtDQEBdMihbT0hdKVtDQEhdMVtDSDJdW0NAQEhdKE9DKD1PKVtDSDNdKVtDQEhdKFtDQEBIXTNDNChbQ0gzXSlbQ0gzXSlbQ0BdKFtDSDNdKShPQyg9TylbQ0gzXSlbQ0BASF01W0NIMl1bQ0BASF0oW0NAQEhdNltDQF03KFtPSF0pQyhbQ0gzXSk9W0NIXUM2PU8pW0NASF0zW0NASF0oW0NAQEhdKFtPSF0pW0NAQF00OFtDQF0yNTcpQyhbQ0gzXSkoW0NIM10pW0NIMl1bQ0BASF04W09IXQ==

>  <s_epik_cmdline>  (221) 
J2VwaWtfcHl0aG9uJywgJy1waHQnLCAnMi4wJywgJy1waCcsICc3LjAnLCAnLXRuJywgJzgnLCAnLW1hJywgJzIwMCcsICctaW1hZScsICc8aW5maWxlLm1hZT4nLCAnLW9tYWUnLCAnPG91dGZpbGUubWFlPic=

>  <r_lp_tautomer_probability>  (221) 
1

>  <r_epik_Ionization_Penalty>  (221) 
6.03248e-07

>  <r_epik_Ionization_Penalty_Charging>  (221) 
0

>  <r_epik_Ionization_Penalty_Neutral>  (221) 
6.03248e-07

>  <r_epik_State_Penalty>  (221) 
-0

>  <r_epik_Charging_Adjusted_Penalty>  (221) 
0

>  <i_epik_Tot_Q>  (221) 
0

>  <i_epik_Tot_abs_Q>  (221) 
0

>  <s_epik_Chemistry_Notes>  (221) 
This compound has an ester and may undergo hydrolysis at high or low pH.

>  <s_lp_Force_Field>  (221) 
OPLS3e

>  <r_lp_Energy>  (221) 
567.234

>  <b_lp_Chiralities_Consistent>  (221) 
1

>  <s_lp_Variant>  (221) 
81:0-1

>  <s_i_glide_gridfile>  (221) 
pfpi4k_grid

>  <i_i_glide_lignum>  (221) 
34

>  <i_i_glide_rotatable_bonds>  (221) 
8

>  <r_i_docking_score>  (221) 
-2.97578

>  <r_i_glide_ligand_efficiency>  (221) 
-0.0633145

>  <r_i_glide_ligand_efficiency_sa>  (221) 
-0.228491

>  <r_i_glide_ligand_efficiency_ln>  (221) 
-0.613544

>  <r_i_glide_gscore>  (221) 
-2.97578

>  <r_i_glide_lipo>  (221) 
-0.533168

>  <r_i_glide_hbond>  (221) 
-0.0869877

>  <r_i_glide_metal>  (221) 
-0

>  <r_i_glide_rewards>  (221) 
-0.0272677

>  <r_i_glide_evdw>  (221) 
-25.8796

>  <r_i_glide_ecoul>  (221) 
-7.09256

>  <r_i_glide_erotb>  (221) 
0.0997054

>  <r_i_glide_esite>  (221) 
-0.0701966

>  <r_i_glide_emodel>  (221) 
-38.7358

>  <r_i_glide_energy>  (221) 
-32.9722

>  <r_i_glide_einternal>  (221) 
1.44093

>  <r_i_glide_intrahb_reward>  (221) 
-0

>  <i_i_glide_confnum>  (221) 
3

>  <i_i_glide_posenum>  (221) 
10

>  <r_i_glide_eff_state_penalty>  (221) 
0

>  <ligand_id>  (221) 
81

>  <original_smiles>  (221) 
CC(=O)OC1CC2C=C(C)CC2(O)C23C4CC(C5C6C(O)C2(C(O)CC6(C)C)C(C)(C)C5C1C4(C)OC(C)=O)C1C(=O)C=C(C)C13O

>  <smiles>  (221) 
[H]OC1([H])C([H])([H])C(C([H])([H])[H])(C([H])([H])[H])C2([H])C([H])(O[H])C13C(C([H])([H])[H])(C([H])([H])[H])C1([H])C2([H])C2([H])C([H])([H])C4([H])C(OC(=O)C([H])([H])[H])(C([H])([H])[H])C1([H])C([H])(OC(=O)C([H])([H])[H])C([H])([H])C1([H])C([H])=C(C([H])([H])[H])C([H])([H])C1(O[H])C43C1(O[H])C(C([H])([H])[H])=C([H])C(=O)C12[H]

$$$$
81:0:1
     RDKit          3D

 99106  0  0  1  0  0  0  0  0999 V2000
    8.5905   -0.4624    9.1264 C   0  0  0  0  0  0  0  0  0  0  0  0
    7.1885   -0.8290    8.6444 C   0  0  0  0  0  0  0  0  0  0  0  0
    6.7664   -1.9811    8.7182 O   0  0  0  0  0  0  0  0  0  0  0  0
    6.5256    0.2288    8.1339 O   0  0  0  0  0  0  0  0  0  0  0  0
    5.1881    0.0997    7.6343 C   0  0  2  0  0  0  0  0  0  0  0  0
    5.2786   -0.5293    6.1935 C   0  0  0  0  0  0  0  0  0  0  0  0
    4.5541    0.0361    4.9227 C   0  0  1  0  0  0  0  0  0  0  0  0
    4.9605   -0.7442    3.6966 C   0  0  0  0  0  0  0  0  0  0  0  0
    4.2183   -0.3949    2.6639 C   0  0  0  0  0  0  0  0  0  0  0  0
    4.3441   -0.8608    1.2263 C   0  0  0  0  0  0  0  0  0  0  0  0
    3.2102    0.6362    3.0867 C   0  0  0  0  0  0  0  0  0  0  0  0
    3.0161    0.4451    4.6592 C   0  0  1  0  0  0  0  0  0  0  0  0
    2.1044   -0.6325    4.4793 O   0  0  0  0  0  0  0  0  0  0  0  0
    2.2973    1.5773    5.6183 C   0  0  2  0  0  0  0  0  0  0  0  0
    3.5929    2.7103    5.9898 C   0  0  1  0  0  0  0  0  0  0  0  0
    3.1107    4.1853    6.1396 C   0  0  0  0  0  0  0  0  0  0  0  0
    1.7826    4.0025    6.7616 C   0  0  2  0  0  0  0  0  0  0  0  0
    1.7999    2.9430    8.0014 C   0  0  1  0  0  0  0  0  0  0  0  0
    0.2173    2.6609    8.3823 C   0  0  2  0  0  0  0  0  0  0  0  0
    0.4274    1.2571    8.3200 C   0  0  1  0  0  0  0  0  0  0  0  0
   -0.5105    0.3737    8.9545 O   0  0  0  0  0  0  0  0  0  0  0  0
    1.2087    0.7939    6.9074 C   0  0  1  0  0  0  0  0  0  0  0  0
   -0.2024    0.4309    6.2779 C   0  0  1  0  0  0  0  0  0  0  0  0
   -0.6388   -0.9093    6.4794 O   0  0  0  0  0  0  0  0  0  0  0  0
   -1.3788    1.5269    6.4919 C   0  0  0  0  0  0  0  0  0  0  0  0
   -1.2205    2.6746    7.6388 C   0  0  0  0  0  0  0  0  0  0  0  0
   -2.3986    2.4380    8.6541 C   0  0  0  0  0  0  0  0  0  0  0  0
   -1.6320    4.1148    7.2148 C   0  0  0  0  0  0  0  0  0  0  0  0
    2.1884    0.0475    7.8886 C   0  0  0  0  0  0  0  0  0  0  0  0
    1.9957   -0.6905    9.3158 C   0  0  0  0  0  0  0  0  0  0  0  0
    2.6217   -1.3297    7.2652 C   0  0  0  0  0  0  0  0  0  0  0  0
    2.8842    1.4984    8.1821 C   0  0  1  0  0  0  0  0  0  0  0  0
    4.4387    1.4401    7.9376 C   0  0  2  0  0  0  0  0  0  0  0  0
    4.7990    2.5953    7.0791 C   0  0  1  0  0  0  0  0  0  0  0  0
    6.2176    2.6377    6.4059 C   0  0  0  0  0  0  0  0  0  0  0  0
    4.7908    3.7064    8.0424 O   0  0  0  0  0  0  0  0  0  0  0  0
    5.7220    4.0314    9.0224 C   0  0  0  0  0  0  0  0  0  0  0  0
    5.2472    5.1815    9.8969 C   0  0  0  0  0  0  0  0  0  0  0  0
    6.8032    3.4883    9.2763 O   0  0  0  0  0  0  0  0  0  0  0  0
    0.9494    3.6000    5.5209 C   0  0  1  0  0  0  0  0  0  0  0  0
    0.0413    4.4552    4.6489 C   0  0  0  0  0  0  0  0  0  0  0  0
   -0.1407    5.6702    4.7750 O   0  0  0  0  0  0  0  0  0  0  0  0
   -0.5279    3.5125    3.6796 C   0  0  0  0  0  0  0  0  0  0  0  0
    0.1892    2.3639    3.7289 C   0  0  0  0  0  0  0  0  0  0  0  0
   -0.1093    1.2354    2.7493 C   0  0  0  0  0  0  0  0  0  0  0  0
    1.4855    2.5375    4.5756 C   0  0  2  0  0  0  0  0  0  0  0  0
    2.3049    3.1993    3.6114 O   0  0  0  0  0  0  0  0  0  0  0  0
    8.5283    0.2394    9.9626 H   0  0  0  0  0  0  0  0  0  0  0  0
    9.1585   -0.0026    8.3274 H   0  0  0  0  0  0  0  0  0  0  0  0
    9.1234   -1.3504    9.4688 H   0  0  0  0  0  0  0  0  0  0  0  0
    4.7466   -0.6363    8.3074 H   0  0  0  0  0  0  0  0  0  0  0  0
    6.3326   -0.4993    5.9249 H   0  0  0  0  0  0  0  0  0  0  0  0
    5.1323   -1.6120    6.2708 H   0  0  0  0  0  0  0  0  0  0  0  0
    5.1020    0.9382    4.6880 H   0  0  0  0  0  0  0  0  0  0  0  0
    5.7687   -1.4632    3.6815 H   0  0  0  0  0  0  0  0  0  0  0  0
    3.4024   -1.3042    0.8978 H   0  0  0  0  0  0  0  0  0  0  0  0
    5.1294   -1.6115    1.1202 H   0  0  0  0  0  0  0  0  0  0  0  0
    4.5750   -0.0245    0.5695 H   0  0  0  0  0  0  0  0  0  0  0  0
    3.7129    1.5653    2.8593 H   0  0  0  0  0  0  0  0  0  0  0  0
    2.3355    0.5773    2.4575 H   0  0  0  0  0  0  0  0  0  0  0  0
    1.4119   -0.3125    3.9418 H   0  0  0  0  0  0  0  0  0  0  0  0
    4.1556    2.7656    5.0645 H   0  0  0  0  0  0  0  0  0  0  0  0
    3.7027    4.9443    6.6523 H   0  0  0  0  0  0  0  0  0  0  0  0
    3.0391    4.7245    5.2001 H   0  0  0  0  0  0  0  0  0  0  0  0
    1.4220    4.9696    7.1188 H   0  0  0  0  0  0  0  0  0  0  0  0
    2.1602    3.5856    8.8151 H   0  0  0  0  0  0  0  0  0  0  0  0
    0.0489    3.0584    9.3890 H   0  0  0  0  0  0  0  0  0  0  0  0
    0.8976    1.3370    9.2889 H   0  0  0  0  0  0  0  0  0  0  0  0
   -0.6009    0.6297    9.8537 H   0  0  0  0  0  0  0  0  0  0  0  0
   -0.0635    0.3730    5.2114 H   0  0  0  0  0  0  0  0  0  0  0  0
    0.0293   -1.4776    6.1482 H   0  0  0  0  0  0  0  0  0  0  0  0
   -1.6226    1.9978    5.5457 H   0  0  0  0  0  0  0  0  0  0  0  0
   -2.3062    0.9742    6.6644 H   0  0  0  0  0  0  0  0  0  0  0  0
   -3.3610    2.7911    8.2883 H   0  0  0  0  0  0  0  0  0  0  0  0
   -2.2234    2.9159    9.6191 H   0  0  0  0  0  0  0  0  0  0  0  0
   -2.5867    1.3888    8.8463 H   0  0  0  0  0  0  0  0  0  0  0  0
   -2.1517    4.0911    6.2525 H   0  0  0  0  0  0  0  0  0  0  0  0
   -0.7820    4.7882    7.1663 H   0  0  0  0  0  0  0  0  0  0  0  0
   -2.3005    4.6179    7.9082 H   0  0  0  0  0  0  0  0  0  0  0  0
    2.9186   -1.1568    9.6635 H   0  0  0  0  0  0  0  0  0  0  0  0
    1.2322   -1.4774    9.2948 H   0  0  0  0  0  0  0  0  0  0  0  0
    1.7939   -0.0964   10.2136 H   0  0  0  0  0  0  0  0  0  0  0  0
    3.2918   -1.9595    7.8436 H   0  0  0  0  0  0  0  0  0  0  0  0
    3.0769   -1.3563    6.3214 H   0  0  0  0  0  0  0  0  0  0  0  0
    1.7301   -1.9446    7.1186 H   0  0  0  0  0  0  0  0  0  0  0  0
    2.9457    1.5169    9.2676 H   0  0  0  0  0  0  0  0  0  0  0  0
    4.8429    1.6115    8.9339 H   0  0  0  0  0  0  0  0  0  0  0  0
    6.4663    1.7617    5.8096 H   0  0  0  0  0  0  0  0  0  0  0  0
    7.0845    2.6501    7.0471 H   0  0  0  0  0  0  0  0  0  0  0  0
    6.2978    3.4990    5.7526 H   0  0  0  0  0  0  0  0  0  0  0  0
    4.3324    4.9009   10.4174 H   0  0  0  0  0  0  0  0  0  0  0  0
    5.0745    6.0936    9.3235 H   0  0  0  0  0  0  0  0  0  0  0  0
    6.0049    5.3957   10.6550 H   0  0  0  0  0  0  0  0  0  0  0  0
    0.1905    3.0515    5.9855 H   0  0  0  0  0  0  0  0  0  0  0  0
   -1.3830    3.7222    3.0603 H   0  0  0  0  0  0  0  0  0  0  0  0
    0.1116    0.2447    3.1374 H   0  0  0  0  0  0  0  0  0  0  0  0
    0.4350    1.3801    1.8157 H   0  0  0  0  0  0  0  0  0  0  0  0
   -1.1678    1.2398    2.4960 H   0  0  0  0  0  0  0  0  0  0  0  0
    1.7646    3.5997    2.9521 H   0  0  0  0  0  0  0  0  0  0  0  0
  1  2  1  0
  1 48  1  0
  1 49  1  0
  1 50  1  0
  2  3  2  0
  2  4  1  0
  4  5  1  0
  5 33  1  0
  5  6  1  0
  5 51  1  1
  6  7  1  0
  6 52  1  0
  6 53  1  0
  7 12  1  0
  7  8  1  0
  7 54  1  6
  8  9  2  0
  8 55  1  0
  9 10  1  0
  9 11  1  0
 10 56  1  0
 10 57  1  0
 10 58  1  0
 11 12  1  0
 11 59  1  0
 11 60  1  0
 12 13  1  6
 14 12  1  6
 13 61  1  0
 14 22  1  0
 14 46  1  0
 14 15  1  0
 15 34  1  0
 15 16  1  0
 15 62  1  6
 16 17  1  0
 16 63  1  0
 16 64  1  0
 17 18  1  0
 17 40  1  0
 17 65  1  1
 18 32  1  0
 18 19  1  0
 18 66  1  1
 19 26  1  0
 19 20  1  0
 19 67  1  1
 20 21  1  0
 20 22  1  0
 20 68  1  1
 21 69  1  0
 22 23  1  0
 22 29  1  1
 23 24  1  0
 23 25  1  0
 23 70  1  6
 24 71  1  0
 25 26  1  0
 25 72  1  0
 25 73  1  0
 26 27  1  0
 26 28  1  0
 27 74  1  0
 27 75  1  0
 27 76  1  0
 28 77  1  0
 28 78  1  0
 28 79  1  0
 29 30  1  0
 29 31  1  0
 29 32  1  0
 30 80  1  0
 30 81  1  0
 30 82  1  0
 31 83  1  0
 31 84  1  0
 31 85  1  0
 32 33  1  0
 32 86  1  1
 33 34  1  0
 33 87  1  1
 34 35  1  0
 34 36  1  1
 35 88  1  0
 35 89  1  0
 35 90  1  0
 36 37  1  0
 37 38  1  0
 37 39  2  0
 38 91  1  0
 38 92  1  0
 38 93  1  0
 40 46  1  0
 40 41  1  0
 40 94  1  1
 41 42  2  0
 41 43  1  0
 43 44  2  0
 43 95  1  0
 44 45  1  0
 44 46  1  0
 45 96  1  0
 45 97  1  0
 45 98  1  0
 46 47  1  6
 47 99  1  0
M  END
>  <i_m_ct_stereo_status>  (222) 
1

>  <s_m_source_file>  (222) 
/var/tmp/pbs.5076255.sched01/tmpl83nofxy/76c90atywu.sdf

>  <i_m_source_file_index>  (222) 
34

>  <i_lp_mmshare_version>  (222) 
48012

>  <i_f3d_flags>  (222) 
0

>  <s_epik_input>  (222) 
W0NIXTE9QyhbQ0gzXSlbQ0gyXVtDQEBdMihbT0hdKVtDQEhdMVtDSDJdW0NAQEhdKE9DKD1PKVtDSDNdKVtDQEhdKFtDQEBIXTNDNChbQ0gzXSlbQ0gzXSlbQ0BdKFtDSDNdKShPQyg9TylbQ0gzXSlbQ0BASF01W0NIMl1bQ0BASF0oW0NAQEhdNltDQF03KFtPSF0pQyhbQ0gzXSk9W0NIXUM2PU8pW0NASF0zW0NASF0oW0NAQEhdKFtPSF0pW0NAQF00OFtDQF0yNTcpQyhbQ0gzXSkoW0NIM10pW0NIMl1bQ0BASF04W09IXQ==

>  <s_epik_cmdline>  (222) 
J2VwaWtfcHl0aG9uJywgJy1waHQnLCAnMi4wJywgJy1waCcsICc3LjAnLCAnLXRuJywgJzgnLCAnLW1hJywgJzIwMCcsICctaW1hZScsICc8aW5maWxlLm1hZT4nLCAnLW9tYWUnLCAnPG91dGZpbGUubWFlPic=

>  <r_lp_tautomer_probability>  (222) 
1

>  <r_epik_Ionization_Penalty>  (222) 
6.03248e-07

>  <r_epik_Ionization_Penalty_Charging>  (222) 
0

>  <r_epik_Ionization_Penalty_Neutral>  (222) 
6.03248e-07

>  <r_epik_State_Penalty>  (222) 
-0

>  <r_epik_Charging_Adjusted_Penalty>  (222) 
0

>  <i_epik_Tot_Q>  (222) 
0

>  <i_epik_Tot_abs_Q>  (222) 
0

>  <s_epik_Chemistry_Notes>  (222) 
This compound has an ester and may undergo hydrolysis at high or low pH.

>  <s_lp_Force_Field>  (222) 
OPLS3e

>  <r_lp_Energy>  (222) 
567.234

>  <b_lp_Chiralities_Consistent>  (222) 
1

>  <s_lp_Variant>  (222) 
81:0-1

>  <s_i_glide_gridfile>  (222) 
pfpi4k_grid

>  <i_i_glide_lignum>  (222) 
34

>  <i_i_glide_rotatable_bonds>  (222) 
8

>  <r_i_docking_score>  (222) 
-2.78755

>  <r_i_glide_ligand_efficiency>  (222) 
-0.0593096

>  <r_i_glide_ligand_efficiency_sa>  (222) 
-0.214038

>  <r_i_glide_ligand_efficiency_ln>  (222) 
-0.574735

>  <r_i_glide_gscore>  (222) 
-2.78755

>  <r_i_glide_lipo>  (222) 
-0.437906

>  <r_i_glide_hbond>  (222) 
0

>  <r_i_glide_metal>  (222) 
-0

>  <r_i_glide_rewards>  (222) 
-0.0185388

>  <r_i_glide_evdw>  (222) 
-28.6396

>  <r_i_glide_ecoul>  (222) 
-6.39307

>  <r_i_glide_erotb>  (222) 
0.0997054

>  <r_i_glide_esite>  (222) 
-0.0398728

>  <r_i_glide_emodel>  (222) 
-40.6485

>  <r_i_glide_energy>  (222) 
-35.0327

>  <r_i_glide_einternal>  (222) 
1.27809

>  <r_i_glide_intrahb_reward>  (222) 
-0

>  <i_i_glide_confnum>  (222) 
3

>  <i_i_glide_posenum>  (222) 
15

>  <r_i_glide_eff_state_penalty>  (222) 
0

>  <ligand_id>  (222) 
81

>  <original_smiles>  (222) 
CC(=O)OC1CC2C=C(C)CC2(O)C23C4CC(C5C6C(O)C2(C(O)CC6(C)C)C(C)(C)C5C1C4(C)OC(C)=O)C1C(=O)C=C(C)C13O

>  <smiles>  (222) 
[H]OC1([H])C([H])([H])C(C([H])([H])[H])(C([H])([H])[H])C2([H])C([H])(O[H])C13C(C([H])([H])[H])(C([H])([H])[H])C1([H])C2([H])C2([H])C([H])([H])C4([H])C(OC(=O)C([H])([H])[H])(C([H])([H])[H])C1([H])C([H])(OC(=O)C([H])([H])[H])C([H])([H])C1([H])C([H])=C(C([H])([H])[H])C([H])([H])C1(O[H])C43C1(O[H])C(C([H])([H])[H])=C([H])C(=O)C12[H]

$$$$
81:0:2
     RDKit          3D

 99106  0  0  1  0  0  0  0  0999 V2000
    7.9890   -2.9235    8.2193 C   0  0  0  0  0  0  0  0  0  0  0  0
    6.5135   -2.9259    7.8383 C   0  0  0  0  0  0  0  0  0  0  0  0
    5.7899   -3.8910    8.0771 O   0  0  0  0  0  0  0  0  0  0  0  0
    6.1368   -1.7807    7.2314 O   0  0  0  0  0  0  0  0  0  0  0  0
    4.7760   -1.5535    6.8332 C   0  0  2  0  0  0  0  0  0  0  0  0
    4.5756   -2.2071    5.4173 C   0  0  0  0  0  0  0  0  0  0  0  0
    3.9261   -1.4812    4.1888 C   0  0  1  0  0  0  0  0  0  0  0  0
    3.9994   -2.3640    2.9658 C   0  0  0  0  0  0  0  0  0  0  0  0
    3.3033   -1.8367    1.9746 C   0  0  0  0  0  0  0  0  0  0  0  0
    3.1769   -2.3374    0.5505 C   0  0  0  0  0  0  0  0  0  0  0  0
    2.6586   -0.5594    2.4413 C   0  0  0  0  0  0  0  0  0  0  0  0
    2.5300   -0.6950    4.0238 C   0  0  1  0  0  0  0  0  0  0  0  0
    1.3571   -1.4950    3.9615 O   0  0  0  0  0  0  0  0  0  0  0  0
    2.1891    0.5854    5.0057 C   0  0  2  0  0  0  0  0  0  0  0  0
    3.7504    1.3670    5.2196 C   0  0  1  0  0  0  0  0  0  0  0  0
    3.6732    2.9114    5.3751 C   0  0  0  0  0  0  0  0  0  0  0  0
    2.4131    3.0766    6.1268 C   0  0  2  0  0  0  0  0  0  0  0  0
    2.2765    2.0636    7.3947 C   0  0  1  0  0  0  0  0  0  0  0  0
    0.7090    2.1989    7.9110 C   0  0  2  0  0  0  0  0  0  0  0  0
    0.5498    0.7813    7.8735 C   0  0  1  0  0  0  0  0  0  0  0  0
   -0.5261    0.1775    8.5998 O   0  0  0  0  0  0  0  0  0  0  0  0
    1.0582    0.1219    6.4118 C   0  0  1  0  0  0  0  0  0  0  0  0
   -0.4477    0.1364    5.9052 C   0  0  1  0  0  0  0  0  0  0  0  0
   -1.2010   -1.0442    6.1213 O   0  0  0  0  0  0  0  0  0  0  0  0
   -1.2865    1.4978    6.1958 C   0  0  0  0  0  0  0  0  0  0  0  0
   -0.7468    2.5804    7.2931 C   0  0  0  0  0  0  0  0  0  0  0  0
   -1.8544    2.6436    8.4140 C   0  0  0  0  0  0  0  0  0  0  0  0
   -0.8050    4.0733    6.8512 C   0  0  0  0  0  0  0  0  0  0  0  0
    1.8969   -0.8471    7.3323 C   0  0  0  0  0  0  0  0  0  0  0  0
    1.6457   -1.4960    8.7964 C   0  0  0  0  0  0  0  0  0  0  0  0
    1.9056   -2.2883    6.7112 C   0  0  0  0  0  0  0  0  0  0  0  0
    2.9692    0.3853    7.5243 C   0  0  1  0  0  0  0  0  0  0  0  0
    4.4254   -0.0543    7.1370 C   0  0  2  0  0  0  0  0  0  0  0  0
    4.9662    0.9791    6.2008 C   0  0  1  0  0  0  0  0  0  0  0  0
    6.3044    0.5855    5.4899 C   0  0  0  0  0  0  0  0  0  0  0  0
    5.2909    1.9675    7.2440 O   0  0  0  0  0  0  0  0  0  0  0  0
    6.3542    2.8424    7.3289 C   0  0  0  0  0  0  0  0  0  0  0  0
    6.2661    3.7062    8.5793 C   0  0  0  0  0  0  0  0  0  0  0  0
    7.2546    3.0235    6.5094 O   0  0  0  0  0  0  0  0  0  0  0  0
    1.3962    2.8838    4.9767 C   0  0  1  0  0  0  0  0  0  0  0  0
    0.6904    3.9428    4.1570 C   0  0  0  0  0  0  0  0  0  0  0  0
    0.8520    5.1634    4.2584 O   0  0  0  0  0  0  0  0  0  0  0  0
   -0.2049    3.1785    3.2915 C   0  0  0  0  0  0  0  0  0  0  0  0
    0.1982    1.8848    3.2908 C   0  0  0  0  0  0  0  0  0  0  0  0
   -0.4511    0.8692    2.3772 C   0  0  0  0  0  0  0  0  0  0  0  0
    1.5607    1.7288    4.0166 C   0  0  2  0  0  0  0  0  0  0  0  0
    2.4351    2.1168    2.9583 O   0  0  0  0  0  0  0  0  0  0  0  0
    8.1913   -2.1426    8.9523 H   0  0  0  0  0  0  0  0  0  0  0  0
    8.6055   -2.7379    7.3419 H   0  0  0  0  0  0  0  0  0  0  0  0
    8.2831   -3.8810    8.6505 H   0  0  0  0  0  0  0  0  0  0  0  0
    4.2070   -2.1271    7.5562 H   0  0  0  0  0  0  0  0  0  0  0  0
    5.5793   -2.4621    5.0656 H   0  0  0  0  0  0  0  0  0  0  0  0
    4.1659   -3.2121    5.5422 H   0  0  0  0  0  0  0  0  0  0  0  0
    4.6739   -0.7585    3.8960 H   0  0  0  0  0  0  0  0  0  0  0  0
    4.5846   -3.2688    2.9077 H   0  0  0  0  0  0  0  0  0  0  0  0
    2.1329   -2.5342    0.3222 H   0  0  0  0  0  0  0  0  0  0  0  0
    3.7332   -3.2610    0.3975 H   0  0  0  0  0  0  0  0  0  0  0  0
    3.5405   -1.5866   -0.1500 H   0  0  0  0  0  0  0  0  0  0  0  0
    3.3960    0.1799    2.1312 H   0  0  0  0  0  0  0  0  0  0  0  0
    1.7453   -0.3823    1.8833 H   0  0  0  0  0  0  0  0  0  0  0  0
    0.6917   -0.9744    3.5436 H   0  0  0  0  0  0  0  0  0  0  0  0
    4.2404    1.2656    4.2582 H   0  0  0  0  0  0  0  0  0  0  0  0
    4.4691    3.4871    5.8187 H   0  0  0  0  0  0  0  0  0  0  0  0
    3.6604    3.4449    4.4304 H   0  0  0  0  0  0  0  0  0  0  0  0
    2.3507    4.1087    6.4905 H   0  0  0  0  0  0  0  0  0  0  0  0
    2.8495    2.5897    8.1566 H   0  0  0  0  0  0  0  0  0  0  0  0
    0.7360    2.6275    8.9162 H   0  0  0  0  0  0  0  0  0  0  0  0
    1.1099    0.7458    8.7967 H   0  0  0  0  0  0  0  0  0  0  0  0
   -0.5317    0.5439    9.4726 H   0  0  0  0  0  0  0  0  0  0  0  0
   -0.4126    0.0495    4.8420 H   0  0  0  0  0  0  0  0  0  0  0  0
   -0.7201   -1.7667    5.7443 H   0  0  0  0  0  0  0  0  0  0  0  0
   -1.4796    2.0112    5.2597 H   0  0  0  0  0  0  0  0  0  0  0  0
   -2.3006    1.2011    6.4599 H   0  0  0  0  0  0  0  0  0  0  0  0
   -2.7161    3.2435    8.1141 H   0  0  0  0  0  0  0  0  0  0  0  0
   -1.4724    3.0752    9.3397 H   0  0  0  0  0  0  0  0  0  0  0  0
   -2.3094    1.6921    8.6715 H   0  0  0  0  0  0  0  0  0  0  0  0
   -1.3851    4.1979    5.9358 H   0  0  0  0  0  0  0  0  0  0  0  0
    0.1830    4.5017    6.7238 H   0  0  0  0  0  0  0  0  0  0  0  0
   -1.2579    4.7411    7.5863 H   0  0  0  0  0  0  0  0  0  0  0  0
    2.4440   -2.1859    9.0764 H   0  0  0  0  0  0  0  0  0  0  0  0
    0.7096   -2.0573    8.8548 H   0  0  0  0  0  0  0  0  0  0  0  0
    1.6829   -0.8664    9.6856 H   0  0  0  0  0  0  0  0  0  0  0  0
    2.4392   -3.0668    7.2558 H   0  0  0  0  0  0  0  0  0  0  0  0
    2.2555   -2.4369    5.7370 H   0  0  0  0  0  0  0  0  0  0  0  0
    0.8797   -2.6496    6.6603 H   0  0  0  0  0  0  0  0  0  0  0  0
    3.1350    0.3892    8.5991 H   0  0  0  0  0  0  0  0  0  0  0  0
    4.9756    0.0288    8.0813 H   0  0  0  0  0  0  0  0  0  0  0  0
    6.3059   -0.3514    4.9588 H   0  0  0  0  0  0  0  0  0  0  0  0
    7.1281    0.4807    6.1999 H   0  0  0  0  0  0  0  0  0  0  0  0
    6.5983    1.3330    4.7624 H   0  0  0  0  0  0  0  0  0  0  0  0
    6.1935    3.0858    9.4734 H   0  0  0  0  0  0  0  0  0  0  0  0
    5.3851    4.3476    8.5235 H   0  0  0  0  0  0  0  0  0  0  0  0
    7.1473    4.3439    8.6652 H   0  0  0  0  0  0  0  0  0  0  0  0
    0.5775    2.5593    5.5294 H   0  0  0  0  0  0  0  0  0  0  0  0
   -1.0386    3.5999    2.7441 H   0  0  0  0  0  0  0  0  0  0  0  0
   -0.4527   -0.1382    2.7773 H   0  0  0  0  0  0  0  0  0  0  0  0
    0.0374    0.8658    1.4027 H   0  0  0  0  0  0  0  0  0  0  0  0
   -1.4939    1.1444    2.2052 H   0  0  0  0  0  0  0  0  0  0  0  0
    1.9903    2.7391    2.3989 H   0  0  0  0  0  0  0  0  0  0  0  0
  1  2  1  0
  1 48  1  0
  1 49  1  0
  1 50  1  0
  2  3  2  0
  2  4  1  0
  4  5  1  0
  5 33  1  0
  5  6  1  0
  5 51  1  1
  6  7  1  0
  6 52  1  0
  6 53  1  0
  7 12  1  0
  7  8  1  0
  7 54  1  6
  8  9  2  0
  8 55  1  0
  9 10  1  0
  9 11  1  0
 10 56  1  0
 10 57  1  0
 10 58  1  0
 11 12  1  0
 11 59  1  0
 11 60  1  0
 12 13  1  6
 14 12  1  6
 13 61  1  0
 14 22  1  0
 14 46  1  0
 14 15  1  0
 15 34  1  0
 15 16  1  0
 15 62  1  6
 16 17  1  0
 16 63  1  0
 16 64  1  0
 17 18  1  0
 17 40  1  0
 17 65  1  1
 18 32  1  0
 18 19  1  0
 18 66  1  1
 19 26  1  0
 19 20  1  0
 19 67  1  1
 20 21  1  0
 20 22  1  0
 20 68  1  1
 21 69  1  0
 22 23  1  0
 22 29  1  1
 23 24  1  0
 23 25  1  0
 23 70  1  6
 24 71  1  0
 25 26  1  0
 25 72  1  0
 25 73  1  0
 26 27  1  0
 26 28  1  0
 27 74  1  0
 27 75  1  0
 27 76  1  0
 28 77  1  0
 28 78  1  0
 28 79  1  0
 29 30  1  0
 29 31  1  0
 29 32  1  0
 30 80  1  0
 30 81  1  0
 30 82  1  0
 31 83  1  0
 31 84  1  0
 31 85  1  0
 32 33  1  0
 32 86  1  1
 33 34  1  0
 33 87  1  1
 34 35  1  0
 34 36  1  1
 35 88  1  0
 35 89  1  0
 35 90  1  0
 36 37  1  0
 37 38  1  0
 37 39  2  0
 38 91  1  0
 38 92  1  0
 38 93  1  0
 40 46  1  0
 40 41  1  0
 40 94  1  1
 41 42  2  0
 41 43  1  0
 43 44  2  0
 43 95  1  0
 44 45  1  0
 44 46  1  0
 45 96  1  0
 45 97  1  0
 45 98  1  0
 46 47  1  6
 47 99  1  0
M  END
>  <i_m_ct_stereo_status>  (223) 
1

>  <s_m_source_file>  (223) 
/var/tmp/pbs.5076255.sched01/tmpl83nofxy/76c90atywu.sdf

>  <i_m_source_file_index>  (223) 
34

>  <i_lp_mmshare_version>  (223) 
48012

>  <i_f3d_flags>  (223) 
0

>  <s_epik_input>  (223) 
W0NIXTE9QyhbQ0gzXSlbQ0gyXVtDQEBdMihbT0hdKVtDQEhdMVtDSDJdW0NAQEhdKE9DKD1PKVtDSDNdKVtDQEhdKFtDQEBIXTNDNChbQ0gzXSlbQ0gzXSlbQ0BdKFtDSDNdKShPQyg9TylbQ0gzXSlbQ0BASF01W0NIMl1bQ0BASF0oW0NAQEhdNltDQF03KFtPSF0pQyhbQ0gzXSk9W0NIXUM2PU8pW0NASF0zW0NASF0oW0NAQEhdKFtPSF0pW0NAQF00OFtDQF0yNTcpQyhbQ0gzXSkoW0NIM10pW0NIMl1bQ0BASF04W09IXQ==

>  <s_epik_cmdline>  (223) 
J2VwaWtfcHl0aG9uJywgJy1waHQnLCAnMi4wJywgJy1waCcsICc3LjAnLCAnLXRuJywgJzgnLCAnLW1hJywgJzIwMCcsICctaW1hZScsICc8aW5maWxlLm1hZT4nLCAnLW9tYWUnLCAnPG91dGZpbGUubWFlPic=

>  <r_lp_tautomer_probability>  (223) 
1

>  <r_epik_Ionization_Penalty>  (223) 
6.03248e-07

>  <r_epik_Ionization_Penalty_Charging>  (223) 
0

>  <r_epik_Ionization_Penalty_Neutral>  (223) 
6.03248e-07

>  <r_epik_State_Penalty>  (223) 
-0

>  <r_epik_Charging_Adjusted_Penalty>  (223) 
0

>  <i_epik_Tot_Q>  (223) 
0

>  <i_epik_Tot_abs_Q>  (223) 
0

>  <s_epik_Chemistry_Notes>  (223) 
This compound has an ester and may undergo hydrolysis at high or low pH.

>  <s_lp_Force_Field>  (223) 
OPLS3e

>  <r_lp_Energy>  (223) 
567.234

>  <b_lp_Chiralities_Consistent>  (223) 
1

>  <s_lp_Variant>  (223) 
81:0-1

>  <s_i_glide_gridfile>  (223) 
pfpi4k_grid

>  <i_i_glide_lignum>  (223) 
34

>  <i_i_glide_rotatable_bonds>  (223) 
8

>  <r_i_docking_score>  (223) 
-2.49383

>  <r_i_glide_ligand_efficiency>  (223) 
-0.0530601

>  <r_i_glide_ligand_efficiency_sa>  (223) 
-0.191485

>  <r_i_glide_ligand_efficiency_ln>  (223) 
-0.514175

>  <r_i_glide_gscore>  (223) 
-2.49383

>  <r_i_glide_lipo>  (223) 
-0.214621

>  <r_i_glide_hbond>  (223) 
0

>  <r_i_glide_metal>  (223) 
-0

>  <r_i_glide_rewards>  (223) 
-0.0181591

>  <r_i_glide_evdw>  (223) 
-29.1293

>  <r_i_glide_ecoul>  (223) 
-5.69647

>  <r_i_glide_erotb>  (223) 
0.0997054

>  <r_i_glide_esite>  (223) 
-0.0498171

>  <r_i_glide_emodel>  (223) 
-40.197

>  <r_i_glide_energy>  (223) 
-34.8257

>  <r_i_glide_einternal>  (223) 
1.20661

>  <r_i_glide_intrahb_reward>  (223) 
-0

>  <i_i_glide_confnum>  (223) 
4

>  <i_i_glide_posenum>  (223) 
7

>  <r_i_glide_eff_state_penalty>  (223) 
0

>  <ligand_id>  (223) 
81

>  <original_smiles>  (223) 
CC(=O)OC1CC2C=C(C)CC2(O)C23C4CC(C5C6C(O)C2(C(O)CC6(C)C)C(C)(C)C5C1C4(C)OC(C)=O)C1C(=O)C=C(C)C13O

>  <smiles>  (223) 
[H]OC1([H])C([H])([H])C(C([H])([H])[H])(C([H])([H])[H])C2([H])C([H])(O[H])C13C(C([H])([H])[H])(C([H])([H])[H])C1([H])C2([H])C2([H])C([H])([H])C4([H])C(OC(=O)C([H])([H])[H])(C([H])([H])[H])C1([H])C([H])(OC(=O)C([H])([H])[H])C([H])([H])C1([H])C([H])=C(C([H])([H])[H])C([H])([H])C1(O[H])C43C1(O[H])C(C([H])([H])[H])=C([H])C(=O)C12[H]

$$$$
82:0:0
     RDKit          3D

 54 58  0  0  1  0  0  0  0  0999 V2000
    4.5792  -11.6360    3.5049 C   0  0  0  0  0  0  0  0  0  0  0  0
    3.6789  -10.3926    3.6549 C   0  0  2  0  0  0  0  0  0  0  0  0
    3.1598  -10.0109    2.2713 C   0  0  0  0  0  0  0  0  0  0  0  0
    3.6507   -9.0187    1.5152 C   0  0  0  0  0  0  0  0  0  0  0  0
    4.8133   -8.1225    1.9061 C   0  0  2  0  0  0  0  0  0  0  0  0
    5.3415   -8.4383    3.3097 C   0  0  0  0  0  0  0  0  0  0  0  0
    6.6002   -8.1257    3.6664 C   0  0  0  0  0  0  0  0  0  0  0  0
    7.5872   -7.4058    2.7734 C   0  0  0  0  0  0  0  0  0  0  0  0
    7.2113   -5.9227    2.5318 C   0  0  1  0  0  0  0  0  0  0  0  0
    8.1746   -5.2045    1.5193 C   0  0  1  0  0  0  0  0  0  0  0  0
    8.6712   -6.0501    0.4907 O   0  0  0  0  0  0  0  0  0  0  0  0
    7.6559   -3.8779    0.8804 C   0  0  0  0  0  0  0  0  0  0  0  0
    6.4618   -3.8439   -0.1152 C   0  0  0  0  0  0  0  0  0  0  0  0
    6.4455   -2.9642   -0.9765 O   0  0  0  0  0  0  0  0  0  0  0  0
    5.4142   -4.7117    0.0450 O   0  0  0  0  0  0  0  0  0  0  0  0
    5.6007   -5.9427    0.7044 C   0  0  2  0  0  0  0  0  0  0  0  0
    4.6426   -6.6124    1.6375 C   0  0  1  0  0  0  0  0  0  0  0  0
    3.1790   -6.1692    1.5367 C   0  0  0  0  0  0  0  0  0  0  0  0
    5.7395   -5.6628    2.1805 C   0  0  1  0  0  0  0  0  0  0  0  0
    5.1886   -4.4292    2.9139 C   0  0  0  0  0  0  0  0  0  0  0  0
    4.4300   -9.1955    4.2727 C   0  0  1  0  0  0  0  0  0  0  0  0
    3.3353   -8.3142    4.8890 C   0  0  0  0  0  0  0  0  0  0  0  0
    2.1968   -9.2597    5.2873 C   0  0  0  0  0  0  0  0  0  0  0  0
    2.5673  -10.6369    4.7141 C   0  0  1  0  0  0  0  0  0  0  0  0
    1.3506  -11.4557    4.2662 C   0  0  0  0  0  0  0  0  0  0  0  0
    0.5640  -11.0323    3.4223 O   0  0  0  0  0  0  0  0  0  0  0  0
    5.0142  -11.9417    4.4576 H   0  0  0  0  0  0  0  0  0  0  0  0
    5.4007  -11.4500    2.8119 H   0  0  0  0  0  0  0  0  0  0  0  0
    4.0200  -12.4872    3.1124 H   0  0  0  0  0  0  0  0  0  0  0  0
    2.3862  -10.6262    1.8462 H   0  0  0  0  0  0  0  0  0  0  0  0
    3.2544   -8.8926    0.5205 H   0  0  0  0  0  0  0  0  0  0  0  0
    5.5861   -8.4646    1.2207 H   0  0  0  0  0  0  0  0  0  0  0  0
    6.9507   -8.3828    4.6537 H   0  0  0  0  0  0  0  0  0  0  0  0
    8.5704   -7.4666    3.2433 H   0  0  0  0  0  0  0  0  0  0  0  0
    7.6751   -7.9613    1.8404 H   0  0  0  0  0  0  0  0  0  0  0  0
    7.3742   -5.4560    3.5045 H   0  0  0  0  0  0  0  0  0  0  0  0
    9.0620   -4.9318    2.0915 H   0  0  0  0  0  0  0  0  0  0  0  0
    9.1935   -6.7504    0.8790 H   0  0  0  0  0  0  0  0  0  0  0  0
    7.3982   -3.1809    1.6734 H   0  0  0  0  0  0  0  0  0  0  0  0
    8.4946   -3.4160    0.3553 H   0  0  0  0  0  0  0  0  0  0  0  0
    6.3073   -6.5872    0.1951 H   0  0  0  0  0  0  0  0  0  0  0  0
    3.1053   -5.1216    1.2529 H   0  0  0  0  0  0  0  0  0  0  0  0
    2.6613   -6.2914    2.4852 H   0  0  0  0  0  0  0  0  0  0  0  0
    2.6435   -6.7204    0.7670 H   0  0  0  0  0  0  0  0  0  0  0  0
    4.5389   -3.8337    2.2750 H   0  0  0  0  0  0  0  0  0  0  0  0
    5.9742   -3.7618    3.2557 H   0  0  0  0  0  0  0  0  0  0  0  0
    4.6131   -4.7415    3.7851 H   0  0  0  0  0  0  0  0  0  0  0  0
    5.0351   -9.5758    5.0993 H   0  0  0  0  0  0  0  0  0  0  0  0
    3.7100   -7.7382    5.7343 H   0  0  0  0  0  0  0  0  0  0  0  0
    2.9539   -7.6059    4.1583 H   0  0  0  0  0  0  0  0  0  0  0  0
    2.1063   -9.3200    6.3731 H   0  0  0  0  0  0  0  0  0  0  0  0
    1.2441   -8.8934    4.9009 H   0  0  0  0  0  0  0  0  0  0  0  0
    3.0195  -11.2027    5.5316 H   0  0  0  0  0  0  0  0  0  0  0  0
    1.2361  -12.4247    4.7533 H   0  0  0  0  0  0  0  0  0  0  0  0
  2  1  1  6
  1 27  1  0
  1 28  1  0
  1 29  1  0
  2 21  1  0
  2 24  1  0
  2  3  1  0
  3  4  2  0
  3 30  1  0
  4  5  1  0
  4 31  1  0
  5 17  1  0
  5  6  1  0
  5 32  1  6
  6  7  2  0
  6 21  1  0
  7  8  1  0
  7 33  1  0
  8  9  1  0
  8 34  1  0
  8 35  1  0
  9 19  1  0
  9 10  1  0
  9 36  1  1
 10 11  1  0
 10 12  1  0
 10 37  1  1
 11 38  1  0
 12 13  1  0
 12 39  1  0
 12 40  1  0
 13 14  2  0
 13 15  1  0
 15 16  1  0
 16 19  1  0
 16 17  1  0
 16 41  1  6
 17 18  1  6
 17 19  1  0
 18 42  1  0
 18 43  1  0
 18 44  1  0
 19 20  1  6
 20 45  1  0
 20 46  1  0
 20 47  1  0
 21 22  1  0
 21 48  1  1
 22 23  1  0
 22 49  1  0
 22 50  1  0
 23 24  1  0
 23 51  1  0
 23 52  1  0
 24 25  1  0
 24 53  1  1
 25 26  2  0
 25 54  1  0
M  END
>  <i_m_ct_stereo_status>  (224) 
1

>  <s_m_source_file>  (224) 
/var/tmp/pbs.5076255.sched01/tmpl83nofxy/76c90atywu.sdf

>  <i_m_source_file_index>  (224) 
35

>  <i_lp_mmshare_version>  (224) 
48012

>  <i_f3d_flags>  (224) 
0

>  <s_epik_input>  (224) 
Tz1bQ0hdW0NAQEhdMVtDSDJdW0NIMl1bQ0BASF0oW0NAQF0xMltDSDNdKUM9M1tDQEBIXShbQ0hdPVtDSF0yKVtDQF00KFtDSDNdKVtDQEBIXTVbQ0BdNChbQ0gzXSlbQ0BASF0oW0NIMl1bQ0hdMylbQ0BASF0oW09IXSlbQ0gyXUMoPU8pTzU=

>  <s_epik_cmdline>  (224) 
J2VwaWtfcHl0aG9uJywgJy1waHQnLCAnMi4wJywgJy1waCcsICc3LjAnLCAnLXRuJywgJzgnLCAnLW1hJywgJzIwMCcsICctaW1hZScsICc8aW5maWxlLm1hZT4nLCAnLW9tYWUnLCAnPG91dGZpbGUubWFlPic=

>  <r_lp_tautomer_probability>  (224) 
1

>  <r_epik_Ionization_Penalty>  (224) 
5.90361e-08

>  <r_epik_Ionization_Penalty_Charging>  (224) 
0

>  <r_epik_Ionization_Penalty_Neutral>  (224) 
5.90361e-08

>  <r_epik_State_Penalty>  (224) 
-0

>  <r_epik_Charging_Adjusted_Penalty>  (224) 
0

>  <i_epik_Tot_Q>  (224) 
0

>  <i_epik_Tot_abs_Q>  (224) 
0

>  <s_epik_Chemistry_Notes>  (224) 
This compound has an ester and may undergo hydrolysis at high or low pH.

>  <s_lp_Force_Field>  (224) 
OPLS3e

>  <r_lp_Energy>  (224) 
56.7678

>  <b_lp_Chiralities_Consistent>  (224) 
1

>  <s_lp_Variant>  (224) 
82:0-1

>  <s_i_glide_gridfile>  (224) 
pfpi4k_grid

>  <i_i_glide_lignum>  (224) 
35

>  <i_i_glide_rotatable_bonds>  (224) 
2

>  <r_i_docking_score>  (224) 
-3.64162

>  <r_i_glide_ligand_efficiency>  (224) 
-0.140062

>  <r_i_glide_ligand_efficiency_sa>  (224) 
-0.414934

>  <r_i_glide_ligand_efficiency_ln>  (224) 
-0.855223

>  <r_i_glide_gscore>  (224) 
-3.64162

>  <r_i_glide_lipo>  (224) 
-0.496919

>  <r_i_glide_hbond>  (224) 
-0.16

>  <r_i_glide_metal>  (224) 
-0

>  <r_i_glide_rewards>  (224) 
-1.21563

>  <r_i_glide_evdw>  (224) 
-26.0722

>  <r_i_glide_ecoul>  (224) 
-3.10311

>  <r_i_glide_erotb>  (224) 
0

>  <r_i_glide_esite>  (224) 
0

>  <r_i_glide_emodel>  (224) 
-36.0527

>  <r_i_glide_energy>  (224) 
-29.1753

>  <r_i_glide_einternal>  (224) 
0.68765

>  <r_i_glide_intrahb_reward>  (224) 
-0

>  <i_i_glide_confnum>  (224) 
2

>  <i_i_glide_posenum>  (224) 
1

>  <r_i_glide_eff_state_penalty>  (224) 
0

>  <ligand_id>  (224) 
82

>  <original_smiles>  (224) 
CC12C=CC3C(=CCC4C(O)CC(=O)OC5C3(C)C45C)C1CCC2C=O

>  <smiles>  (224) 
[H]OC1([H])C([H])([H])C(=O)OC2([H])C3(C([H])([H])[H])C4([H])C([H])=C([H])C5(C([H])([H])[H])C([H])(C([H])=O)C([H])([H])C([H])([H])C5([H])C4=C([H])C([H])([H])C1([H])C23C([H])([H])[H]

$$$$
82:0:1
     RDKit          3D

 54 58  0  0  1  0  0  0  0  0999 V2000
    6.5487   -8.6470    2.9004 C   0  0  0  0  0  0  0  0  0  0  0  0
    5.0912   -8.1394    2.9492 C   0  0  2  0  0  0  0  0  0  0  0  0
    4.4645   -8.3762    1.5796 C   0  0  0  0  0  0  0  0  0  0  0  0
    4.3108   -7.4178    0.6494 C   0  0  0  0  0  0  0  0  0  0  0  0
    4.7253   -5.9710    0.7901 C   0  0  2  0  0  0  0  0  0  0  0  0
    5.3211   -5.6880    2.1591 C   0  0  0  0  0  0  0  0  0  0  0  0
    6.1679   -4.6684    2.3304 C   0  0  0  0  0  0  0  0  0  0  0  0
    6.5674   -3.6718    1.2577 C   0  0  0  0  0  0  0  0  0  0  0  0
    5.4180   -2.7210    0.8450 C   0  0  1  0  0  0  0  0  0  0  0  0
    5.7914   -1.7643   -0.3446 C   0  0  1  0  0  0  0  0  0  0  0  0
    6.7041   -2.3133   -1.2858 O   0  0  0  0  0  0  0  0  0  0  0  0
    4.6100   -1.1043   -1.1185 C   0  0  0  0  0  0  0  0  0  0  0  0
    3.6376   -1.9436   -1.9963 C   0  0  0  0  0  0  0  0  0  0  0  0
    3.1597   -1.4235   -3.0024 O   0  0  0  0  0  0  0  0  0  0  0  0
    3.2789   -3.2059   -1.6014 O   0  0  0  0  0  0  0  0  0  0  0  0
    4.1318   -3.9766   -0.7866 C   0  0  2  0  0  0  0  0  0  0  0  0
    3.7238   -4.8907    0.3274 C   0  0  1  0  0  0  0  0  0  0  0  0
    2.2744   -5.3767    0.3115 C   0  0  0  0  0  0  0  0  0  0  0  0
    4.0721   -3.4087    0.6072 C   0  0  1  0  0  0  0  0  0  0  0  0
    2.9167   -2.5918    1.2008 C   0  0  0  0  0  0  0  0  0  0  0  0
    5.0117   -6.6416    3.3082 C   0  0  1  0  0  0  0  0  0  0  0  0
    3.6104   -6.4342    3.8913 C   0  0  0  0  0  0  0  0  0  0  0  0
    3.2170   -7.7663    4.5316 C   0  0  0  0  0  0  0  0  0  0  0  0
    4.3076   -8.7766    4.1300 C   0  0  1  0  0  0  0  0  0  0  0  0
    3.7857  -10.2066    3.9151 C   0  0  0  0  0  0  0  0  0  0  0  0
    2.7378  -10.4292    3.3051 O   0  0  0  0  0  0  0  0  0  0  0  0
    7.0739   -8.4729    3.8404 H   0  0  0  0  0  0  0  0  0  0  0  0
    7.1177   -8.1473    2.1142 H   0  0  0  0  0  0  0  0  0  0  0  0
    6.5874   -9.7172    2.6951 H   0  0  0  0  0  0  0  0  0  0  0  0
    4.1745   -9.3870    1.3378 H   0  0  0  0  0  0  0  0  0  0  0  0
    3.9542   -7.6806   -0.3160 H   0  0  0  0  0  0  0  0  0  0  0  0
    5.5595   -5.9220    0.0939 H   0  0  0  0  0  0  0  0  0  0  0  0
    6.5954   -4.5625    3.3088 H   0  0  0  0  0  0  0  0  0  0  0  0
    7.3976   -3.0779    1.6381 H   0  0  0  0  0  0  0  0  0  0  0  0
    6.9674   -4.2186    0.4026 H   0  0  0  0  0  0  0  0  0  0  0  0
    5.2730   -2.0766    1.7139 H   0  0  0  0  0  0  0  0  0  0  0  0
    6.3570   -0.9452    0.0995 H   0  0  0  0  0  0  0  0  0  0  0  0
    6.3085   -3.0672   -1.6962 H   0  0  0  0  0  0  0  0  0  0  0  0
    3.9937   -0.5473   -0.4138 H   0  0  0  0  0  0  0  0  0  0  0  0
    5.0359   -0.3522   -1.7863 H   0  0  0  0  0  0  0  0  0  0  0  0
    5.0726   -4.2095   -1.2723 H   0  0  0  0  0  0  0  0  0  0  0  0
    1.6321   -4.6298   -0.1455 H   0  0  0  0  0  0  0  0  0  0  0  0
    1.9089   -5.5931    1.3135 H   0  0  0  0  0  0  0  0  0  0  0  0
    2.1633   -6.2513   -0.3187 H   0  0  0  0  0  0  0  0  0  0  0  0
    2.0501   -2.5938    0.5444 H   0  0  0  0  0  0  0  0  0  0  0  0
    3.1818   -1.5474    1.3611 H   0  0  0  0  0  0  0  0  0  0  0  0
    2.6184   -3.0162    2.1591 H   0  0  0  0  0  0  0  0  0  0  0  0
    5.7225   -6.4516    4.1154 H   0  0  0  0  0  0  0  0  0  0  0  0
    3.5828   -5.6046    4.5978 H   0  0  0  0  0  0  0  0  0  0  0  0
    2.8989   -6.2079    3.1028 H   0  0  0  0  0  0  0  0  0  0  0  0
    3.1771   -7.6696    5.6173 H   0  0  0  0  0  0  0  0  0  0  0  0
    2.2221   -8.0609    4.1928 H   0  0  0  0  0  0  0  0  0  0  0  0
    5.0006   -8.8314    4.9707 H   0  0  0  0  0  0  0  0  0  0  0  0
    4.4001  -10.9921    4.3508 H   0  0  0  0  0  0  0  0  0  0  0  0
  2  1  1  6
  1 27  1  0
  1 28  1  0
  1 29  1  0
  2 21  1  0
  2 24  1  0
  2  3  1  0
  3  4  2  0
  3 30  1  0
  4  5  1  0
  4 31  1  0
  5 17  1  0
  5  6  1  0
  5 32  1  6
  6  7  2  0
  6 21  1  0
  7  8  1  0
  7 33  1  0
  8  9  1  0
  8 34  1  0
  8 35  1  0
  9 19  1  0
  9 10  1  0
  9 36  1  1
 10 11  1  0
 10 12  1  0
 10 37  1  1
 11 38  1  0
 12 13  1  0
 12 39  1  0
 12 40  1  0
 13 14  2  0
 13 15  1  0
 15 16  1  0
 16 19  1  0
 16 17  1  0
 16 41  1  6
 17 18  1  6
 17 19  1  0
 18 42  1  0
 18 43  1  0
 18 44  1  0
 19 20  1  6
 20 45  1  0
 20 46  1  0
 20 47  1  0
 21 22  1  0
 21 48  1  1
 22 23  1  0
 22 49  1  0
 22 50  1  0
 23 24  1  0
 23 51  1  0
 23 52  1  0
 24 25  1  0
 24 53  1  1
 25 26  2  0
 25 54  1  0
M  END
>  <i_m_ct_stereo_status>  (225) 
1

>  <s_m_source_file>  (225) 
/var/tmp/pbs.5076255.sched01/tmpl83nofxy/76c90atywu.sdf

>  <i_m_source_file_index>  (225) 
35

>  <i_lp_mmshare_version>  (225) 
48012

>  <i_f3d_flags>  (225) 
0

>  <s_epik_input>  (225) 
Tz1bQ0hdW0NAQEhdMVtDSDJdW0NIMl1bQ0BASF0oW0NAQF0xMltDSDNdKUM9M1tDQEBIXShbQ0hdPVtDSF0yKVtDQF00KFtDSDNdKVtDQEBIXTVbQ0BdNChbQ0gzXSlbQ0BASF0oW0NIMl1bQ0hdMylbQ0BASF0oW09IXSlbQ0gyXUMoPU8pTzU=

>  <s_epik_cmdline>  (225) 
J2VwaWtfcHl0aG9uJywgJy1waHQnLCAnMi4wJywgJy1waCcsICc3LjAnLCAnLXRuJywgJzgnLCAnLW1hJywgJzIwMCcsICctaW1hZScsICc8aW5maWxlLm1hZT4nLCAnLW9tYWUnLCAnPG91dGZpbGUubWFlPic=

>  <r_lp_tautomer_probability>  (225) 
1

>  <r_epik_Ionization_Penalty>  (225) 
5.90361e-08

>  <r_epik_Ionization_Penalty_Charging>  (225) 
0

>  <r_epik_Ionization_Penalty_Neutral>  (225) 
5.90361e-08

>  <r_epik_State_Penalty>  (225) 
-0

>  <r_epik_Charging_Adjusted_Penalty>  (225) 
0

>  <i_epik_Tot_Q>  (225) 
0

>  <i_epik_Tot_abs_Q>  (225) 
0

>  <s_epik_Chemistry_Notes>  (225) 
This compound has an ester and may undergo hydrolysis at high or low pH.

>  <s_lp_Force_Field>  (225) 
OPLS3e

>  <r_lp_Energy>  (225) 
56.7678

>  <b_lp_Chiralities_Consistent>  (225) 
1

>  <s_lp_Variant>  (225) 
82:0-1

>  <s_i_glide_gridfile>  (225) 
pfpi4k_grid

>  <i_i_glide_lignum>  (225) 
35

>  <i_i_glide_rotatable_bonds>  (225) 
2

>  <r_i_docking_score>  (225) 
-3.0603

>  <r_i_glide_ligand_efficiency>  (225) 
-0.117704

>  <r_i_glide_ligand_efficiency_sa>  (225) 
-0.348697

>  <r_i_glide_ligand_efficiency_ln>  (225) 
-0.718701

>  <r_i_glide_gscore>  (225) 
-3.0603

>  <r_i_glide_lipo>  (225) 
-0.451572

>  <r_i_glide_hbond>  (225) 
-0.156522

>  <r_i_glide_metal>  (225) 
-0

>  <r_i_glide_rewards>  (225) 
-0.978714

>  <r_i_glide_evdw>  (225) 
-23.724

>  <r_i_glide_ecoul>  (225) 
-1.5124

>  <r_i_glide_erotb>  (225) 
0

>  <r_i_glide_esite>  (225) 
-0.0604334

>  <r_i_glide_emodel>  (225) 
-31.3602

>  <r_i_glide_energy>  (225) 
-25.2364

>  <r_i_glide_einternal>  (225) 
0.0112855

>  <r_i_glide_intrahb_reward>  (225) 
-0

>  <i_i_glide_confnum>  (225) 
1

>  <i_i_glide_posenum>  (225) 
6

>  <r_i_glide_eff_state_penalty>  (225) 
0

>  <ligand_id>  (225) 
82

>  <original_smiles>  (225) 
CC12C=CC3C(=CCC4C(O)CC(=O)OC5C3(C)C45C)C1CCC2C=O

>  <smiles>  (225) 
[H]OC1([H])C([H])([H])C(=O)OC2([H])C3(C([H])([H])[H])C4([H])C([H])=C([H])C5(C([H])([H])[H])C([H])(C([H])=O)C([H])([H])C([H])([H])C5([H])C4=C([H])C([H])([H])C1([H])C23C([H])([H])[H]

$$$$
82:0:2
     RDKit          3D

 54 58  0  0  1  0  0  0  0  0999 V2000
    4.6007   -2.3917    3.7228 C   0  0  0  0  0  0  0  0  0  0  0  0
    4.0799   -3.0726    2.4398 C   0  0  2  0  0  0  0  0  0  0  0  0
    2.5894   -3.3513    2.6160 C   0  0  0  0  0  0  0  0  0  0  0  0
    2.0791   -4.5552    2.9318 C   0  0  0  0  0  0  0  0  0  0  0  0
    2.9001   -5.8142    3.1803 C   0  0  2  0  0  0  0  0  0  0  0  0
    4.4020   -5.5867    2.9706 C   0  0  0  0  0  0  0  0  0  0  0  0
    5.3174   -6.3751    3.5615 C   0  0  0  0  0  0  0  0  0  0  0  0
    4.9897   -7.5703    4.4319 C   0  0  0  0  0  0  0  0  0  0  0  0
    4.3898   -8.7572    3.6355 C   0  0  1  0  0  0  0  0  0  0  0  0
    3.9422   -9.9575    4.5475 C   0  0  1  0  0  0  0  0  0  0  0  0
    3.4328   -9.5591    5.8114 O   0  0  0  0  0  0  0  0  0  0  0  0
    2.9591  -10.9902    3.9187 C   0  0  0  0  0  0  0  0  0  0  0  0
    1.4895  -10.6154    3.5617 C   0  0  0  0  0  0  0  0  0  0  0  0
    0.6297  -11.4908    3.6107 O   0  0  0  0  0  0  0  0  0  0  0  0
    1.1957   -9.3558    3.1061 O   0  0  0  0  0  0  0  0  0  0  0  0
    2.0133   -8.2582    3.4399 C   0  0  2  0  0  0  0  0  0  0  0  0
    2.3854   -7.1212    2.5387 C   0  0  1  0  0  0  0  0  0  0  0  0
    1.4730   -6.8874    1.3288 C   0  0  0  0  0  0  0  0  0  0  0  0
    3.2893   -8.3772    2.6364 C   0  0  1  0  0  0  0  0  0  0  0  0
    3.4572   -9.1349    1.3124 C   0  0  0  0  0  0  0  0  0  0  0  0
    4.8331   -4.3855    2.1335 C   0  0  1  0  0  0  0  0  0  0  0  0
    4.6617   -4.6102    0.6248 C   0  0  0  0  0  0  0  0  0  0  0  0
    4.5264   -3.2190    0.0006 C   0  0  0  0  0  0  0  0  0  0  0  0
    4.4203   -2.2337    1.1772 C   0  0  1  0  0  0  0  0  0  0  0  0
    3.5163   -1.0280    0.8789 C   0  0  0  0  0  0  0  0  0  0  0  0
    3.4050   -0.1065    1.6850 O   0  0  0  0  0  0  0  0  0  0  0  0
    5.6698   -2.1891    3.6686 H   0  0  0  0  0  0  0  0  0  0  0  0
    4.4283   -3.0153    4.6008 H   0  0  0  0  0  0  0  0  0  0  0  0
    4.0984   -1.4407    3.9023 H   0  0  0  0  0  0  0  0  0  0  0  0
    1.9164   -2.5140    2.5095 H   0  0  0  0  0  0  0  0  0  0  0  0
    1.0147   -4.6414    3.0919 H   0  0  0  0  0  0  0  0  0  0  0  0
    2.7806   -5.9470    4.2541 H   0  0  0  0  0  0  0  0  0  0  0  0
    6.3682   -6.1733    3.4152 H   0  0  0  0  0  0  0  0  0  0  0  0
    5.9064   -7.8859    4.9323 H   0  0  0  0  0  0  0  0  0  0  0  0
    4.3230   -7.2439    5.2299 H   0  0  0  0  0  0  0  0  0  0  0  0
    5.2251   -9.1268    3.0382 H   0  0  0  0  0  0  0  0  0  0  0  0
    4.8515  -10.5085    4.7904 H   0  0  0  0  0  0  0  0  0  0  0  0
    3.1689  -10.3344    6.2884 H   0  0  0  0  0  0  0  0  0  0  0  0
    3.4041  -11.3980    3.0128 H   0  0  0  0  0  0  0  0  0  0  0  0
    2.8905  -11.8350    4.6067 H   0  0  0  0  0  0  0  0  0  0  0  0
    2.0321   -8.0591    4.5076 H   0  0  0  0  0  0  0  0  0  0  0  0
    1.0601   -7.8255    0.9596 H   0  0  0  0  0  0  0  0  0  0  0  0
    2.0152   -6.4257    0.5070 H   0  0  0  0  0  0  0  0  0  0  0  0
    0.6175   -6.2688    1.5871 H   0  0  0  0  0  0  0  0  0  0  0  0
    2.5028   -9.4714    0.9090 H   0  0  0  0  0  0  0  0  0  0  0  0
    4.0721  -10.0264    1.4245 H   0  0  0  0  0  0  0  0  0  0  0  0
    3.9334   -8.4956    0.5707 H   0  0  0  0  0  0  0  0  0  0  0  0
    5.8968   -4.2090    2.3086 H   0  0  0  0  0  0  0  0  0  0  0  0
    5.4913   -5.1773    0.2022 H   0  0  0  0  0  0  0  0  0  0  0  0
    3.7545   -5.1704    0.4175 H   0  0  0  0  0  0  0  0  0  0  0  0
    5.4012   -2.9869   -0.6085 H   0  0  0  0  0  0  0  0  0  0  0  0
    3.6539   -3.1837   -0.6543 H   0  0  0  0  0  0  0  0  0  0  0  0
    5.4191   -1.8254    1.3279 H   0  0  0  0  0  0  0  0  0  0  0  0
    3.0155   -1.0419   -0.0865 H   0  0  0  0  0  0  0  0  0  0  0  0
  2  1  1  1
  1 27  1  0
  1 28  1  0
  1 29  1  0
  2 21  1  0
  2 24  1  0
  2  3  1  0
  3  4  2  0
  3 30  1  0
  4  5  1  0
  4 31  1  0
  5 17  1  0
  5  6  1  0
  5 32  1  1
  6  7  2  0
  6 21  1  0
  7  8  1  0
  7 33  1  0
  8  9  1  0
  8 34  1  0
  8 35  1  0
  9 19  1  0
  9 10  1  0
  9 36  1  6
 10 11  1  0
 10 12  1  0
 10 37  1  1
 11 38  1  0
 12 13  1  0
 12 39  1  0
 12 40  1  0
 13 14  2  0
 13 15  1  0
 15 16  1  0
 16 19  1  0
 16 17  1  0
 16 41  1  1
 17 18  1  6
 17 19  1  0
 18 42  1  0
 18 43  1  0
 18 44  1  0
 19 20  1  6
 20 45  1  0
 20 46  1  0
 20 47  1  0
 21 22  1  0
 21 48  1  6
 22 23  1  0
 22 49  1  0
 22 50  1  0
 23 24  1  0
 23 51  1  0
 23 52  1  0
 24 25  1  0
 24 53  1  1
 25 26  2  0
 25 54  1  0
M  END
>  <i_m_ct_stereo_status>  (226) 
1

>  <s_m_source_file>  (226) 
/var/tmp/pbs.5076255.sched01/tmpl83nofxy/76c90atywu.sdf

>  <i_m_source_file_index>  (226) 
35

>  <i_lp_mmshare_version>  (226) 
48012

>  <i_f3d_flags>  (226) 
0

>  <s_epik_input>  (226) 
Tz1bQ0hdW0NAQEhdMVtDSDJdW0NIMl1bQ0BASF0oW0NAQF0xMltDSDNdKUM9M1tDQEBIXShbQ0hdPVtDSF0yKVtDQF00KFtDSDNdKVtDQEBIXTVbQ0BdNChbQ0gzXSlbQ0BASF0oW0NIMl1bQ0hdMylbQ0BASF0oW09IXSlbQ0gyXUMoPU8pTzU=

>  <s_epik_cmdline>  (226) 
J2VwaWtfcHl0aG9uJywgJy1waHQnLCAnMi4wJywgJy1waCcsICc3LjAnLCAnLXRuJywgJzgnLCAnLW1hJywgJzIwMCcsICctaW1hZScsICc8aW5maWxlLm1hZT4nLCAnLW9tYWUnLCAnPG91dGZpbGUubWFlPic=

>  <r_lp_tautomer_probability>  (226) 
1

>  <r_epik_Ionization_Penalty>  (226) 
5.90361e-08

>  <r_epik_Ionization_Penalty_Charging>  (226) 
0

>  <r_epik_Ionization_Penalty_Neutral>  (226) 
5.90361e-08

>  <r_epik_State_Penalty>  (226) 
-0

>  <r_epik_Charging_Adjusted_Penalty>  (226) 
0

>  <i_epik_Tot_Q>  (226) 
0

>  <i_epik_Tot_abs_Q>  (226) 
0

>  <s_epik_Chemistry_Notes>  (226) 
This compound has an ester and may undergo hydrolysis at high or low pH.

>  <s_lp_Force_Field>  (226) 
OPLS3e

>  <r_lp_Energy>  (226) 
56.7678

>  <b_lp_Chiralities_Consistent>  (226) 
1

>  <s_lp_Variant>  (226) 
82:0-1

>  <s_i_glide_gridfile>  (226) 
pfpi4k_grid

>  <i_i_glide_lignum>  (226) 
35

>  <i_i_glide_rotatable_bonds>  (226) 
2

>  <r_i_docking_score>  (226) 
-2.80097

>  <r_i_glide_ligand_efficiency>  (226) 
-0.10773

>  <r_i_glide_ligand_efficiency_sa>  (226) 
-0.319149

>  <r_i_glide_ligand_efficiency_ln>  (226) 
-0.657799

>  <r_i_glide_gscore>  (226) 
-2.80097

>  <r_i_glide_lipo>  (226) 
-0.129325

>  <r_i_glide_hbond>  (226) 
0

>  <r_i_glide_metal>  (226) 
-0

>  <r_i_glide_rewards>  (226) 
-1.11587

>  <r_i_glide_evdw>  (226) 
-26.0277

>  <r_i_glide_ecoul>  (226) 
-1.43793

>  <r_i_glide_erotb>  (226) 
0

>  <r_i_glide_esite>  (226) 
-0.0386996

>  <r_i_glide_emodel>  (226) 
-32.7934

>  <r_i_glide_energy>  (226) 
-27.4656

>  <r_i_glide_einternal>  (226) 
0.660439

>  <r_i_glide_intrahb_reward>  (226) 
-0

>  <i_i_glide_confnum>  (226) 
1

>  <i_i_glide_posenum>  (226) 
8

>  <r_i_glide_eff_state_penalty>  (226) 
0

>  <ligand_id>  (226) 
82

>  <original_smiles>  (226) 
CC12C=CC3C(=CCC4C(O)CC(=O)OC5C3(C)C45C)C1CCC2C=O

>  <smiles>  (226) 
[H]OC1([H])C([H])([H])C(=O)OC2([H])C3(C([H])([H])[H])C4([H])C([H])=C([H])C5(C([H])([H])[H])C([H])(C([H])=O)C([H])([H])C([H])([H])C5([H])C4=C([H])C([H])([H])C1([H])C23C([H])([H])[H]

$$$$
83:0:0
     RDKit          3D

 16 18  0  0  1  0  0  0  0  0999 V2000
    2.6875   -2.3786   -3.4973 C   0  0  0  0  0  0  0  0  0  0  0  0
    3.5543   -1.2565   -3.6133 C   0  0  0  0  0  0  0  0  0  0  0  0
    4.3626   -0.7838   -2.6307 N   0  0  0  0  0  0  0  0  0  0  0  0
    4.2398   -1.4747   -1.5021 C   0  0  0  0  0  0  0  0  0  0  0  0
    5.2087   -1.0329   -0.0796 S   0  0  0  0  0  0  0  0  0  0  0  0
    4.4342   -2.3700    0.8065 C   0  0  0  0  0  0  0  0  0  0  0  0
    4.4052   -2.9693    1.9630 N   0  0  0  0  0  0  0  0  0  0  0  0
    3.4925   -3.9909    1.7875 C   0  0  0  0  0  0  0  0  0  0  0  0
    2.9288   -4.0762    0.5742 N   0  0  0  0  0  0  0  0  0  0  0  0
    3.5533   -3.0378    0.0012 N   0  0  0  0  0  0  0  0  0  0  0  0
    3.4179   -2.6053   -1.2343 C   0  0  0  0  0  0  0  0  0  0  0  0
    2.5945   -3.0802   -2.2718 C   0  0  0  0  0  0  0  0  0  0  0  0
    2.0805   -2.6820   -4.3345 H   0  0  0  0  0  0  0  0  0  0  0  0
    3.6148   -0.7201   -4.5466 H   0  0  0  0  0  0  0  0  0  0  0  0
    3.2391   -4.6875    2.5733 H   0  0  0  0  0  0  0  0  0  0  0  0
    1.9316   -3.9260   -2.1608 H   0  0  0  0  0  0  0  0  0  0  0  0
  1 12  2  0
  1  2  1  0
  1 13  1  0
  2  3  2  0
  2 14  1  0
  3  4  1  0
  4 11  2  0
  4  5  1  0
  5  6  1  0
  6 10  1  0
  6  7  2  0
  7  8  1  0
  8  9  2  0
  8 15  1  0
  9 10  1  0
 10 11  1  0
 11 12  1  0
 12 16  1  0
M  END
>  <i_m_ct_stereo_status>  (227) 
1

>  <s_m_source_file>  (227) 
/var/tmp/pbs.5076255.sched01/tmpl83nofxy/76c90atywu.sdf

>  <i_m_source_file_index>  (227) 
36

>  <i_lp_mmshare_version>  (227) 
48012

>  <i_f3d_flags>  (227) 
0

>  <s_epik_input>  (227) 
bjFbY0hdW2NIXVtjSF1jKGMxMiluM2MoczIpbltjSF1uMw==

>  <s_epik_cmdline>  (227) 
J2VwaWtfcHl0aG9uJywgJy1waHQnLCAnMi4wJywgJy1waCcsICc3LjAnLCAnLXRuJywgJzgnLCAnLW1hJywgJzIwMCcsICctaW1hZScsICc8aW5maWxlLm1hZT4nLCAnLW9tYWUnLCAnPG91dGZpbGUubWFlPic=

>  <r_lp_tautomer_probability>  (227) 
1

>  <r_epik_Ionization_Penalty>  (227) 
5.77128e-05

>  <r_epik_Ionization_Penalty_Charging>  (227) 
0

>  <r_epik_Ionization_Penalty_Neutral>  (227) 
5.77128e-05

>  <r_epik_State_Penalty>  (227) 
-0

>  <r_epik_Charging_Adjusted_Penalty>  (227) 
0

>  <i_epik_Tot_Q>  (227) 
0

>  <i_epik_Tot_abs_Q>  (227) 
0

>  <s_lp_Force_Field>  (227) 
OPLS3e

>  <r_lp_Energy>  (227) 
13.6589

>  <b_lp_Chiralities_Consistent>  (227) 
1

>  <s_lp_Variant>  (227) 
83:0-1

>  <s_i_glide_gridfile>  (227) 
pfpi4k_grid

>  <i_i_glide_lignum>  (227) 
36

>  <i_i_glide_rotatable_bonds>  (227) 
0

>  <r_i_docking_score>  (227) 
-3.88302

>  <r_i_glide_ligand_efficiency>  (227) 
-0.323585

>  <r_i_glide_ligand_efficiency_sa>  (227) 
-0.740825

>  <r_i_glide_ligand_efficiency_ln>  (227) 
-1.11424

>  <r_i_glide_gscore>  (227) 
-3.88302

>  <r_i_glide_lipo>  (227) 
-0.484279

>  <r_i_glide_hbond>  (227) 
0

>  <r_i_glide_metal>  (227) 
-0

>  <r_i_glide_rewards>  (227) 
-2.21266

>  <r_i_glide_evdw>  (227) 
-20.0686

>  <r_i_glide_ecoul>  (227) 
-1.15327

>  <r_i_glide_erotb>  (227) 
0

>  <r_i_glide_esite>  (227) 
-0.00966083

>  <r_i_glide_emodel>  (227) 
-26.6321

>  <r_i_glide_energy>  (227) 
-21.2219

>  <r_i_glide_einternal>  (227) 
0

>  <r_i_glide_intrahb_reward>  (227) 
-0

>  <i_i_glide_confnum>  (227) 
1

>  <i_i_glide_posenum>  (227) 
9

>  <r_i_glide_eff_state_penalty>  (227) 
0

>  <ligand_id>  (227) 
83

>  <original_smiles>  (227) 
c1cnc2sc3ncnn3c2c1

>  <smiles>  (227) 
[H]c1nc2sc3nc([H])c([H])c([H])c3n2n1

$$$$
83:0:1
     RDKit          3D

 16 18  0  0  1  0  0  0  0  0999 V2000
   -1.4715   -8.4475    3.0874 C   0  0  0  0  0  0  0  0  0  0  0  0
   -1.1564   -8.2216    4.4559 C   0  0  0  0  0  0  0  0  0  0  0  0
   -0.1524   -7.4297    4.9098 N   0  0  0  0  0  0  0  0  0  0  0  0
    0.5579   -6.8963    3.9275 C   0  0  0  0  0  0  0  0  0  0  0  0
    1.9282   -5.8354    4.3060 S   0  0  0  0  0  0  0  0  0  0  0  0
    2.1855   -5.6342    2.5496 C   0  0  0  0  0  0  0  0  0  0  0  0
    2.9414   -5.0367    1.6709 N   0  0  0  0  0  0  0  0  0  0  0  0
    2.4237   -5.4319    0.4554 C   0  0  0  0  0  0  0  0  0  0  0  0
    1.3429   -6.2266    0.5054 N   0  0  0  0  0  0  0  0  0  0  0  0
    1.2537   -6.3405    1.8382 N   0  0  0  0  0  0  0  0  0  0  0  0
    0.3675   -7.0322    2.5232 C   0  0  0  0  0  0  0  0  0  0  0  0
   -0.6894   -7.8490    2.0714 C   0  0  0  0  0  0  0  0  0  0  0  0
   -2.2996   -9.0941    2.8407 H   0  0  0  0  0  0  0  0  0  0  0  0
   -1.7559   -8.6739    5.2279 H   0  0  0  0  0  0  0  0  0  0  0  0
    2.8355   -5.0947   -0.4831 H   0  0  0  0  0  0  0  0  0  0  0  0
   -0.9097   -8.0066    1.0236 H   0  0  0  0  0  0  0  0  0  0  0  0
  1 12  2  0
  1  2  1  0
  1 13  1  0
  2  3  2  0
  2 14  1  0
  3  4  1  0
  4 11  2  0
  4  5  1  0
  5  6  1  0
  6 10  1  0
  6  7  2  0
  7  8  1  0
  8  9  2  0
  8 15  1  0
  9 10  1  0
 10 11  1  0
 11 12  1  0
 12 16  1  0
M  END
>  <i_m_ct_stereo_status>  (228) 
1

>  <s_m_source_file>  (228) 
/var/tmp/pbs.5076255.sched01/tmpl83nofxy/76c90atywu.sdf

>  <i_m_source_file_index>  (228) 
36

>  <i_lp_mmshare_version>  (228) 
48012

>  <i_f3d_flags>  (228) 
0

>  <s_epik_input>  (228) 
bjFbY0hdW2NIXVtjSF1jKGMxMiluM2MoczIpbltjSF1uMw==

>  <s_epik_cmdline>  (228) 
J2VwaWtfcHl0aG9uJywgJy1waHQnLCAnMi4wJywgJy1waCcsICc3LjAnLCAnLXRuJywgJzgnLCAnLW1hJywgJzIwMCcsICctaW1hZScsICc8aW5maWxlLm1hZT4nLCAnLW9tYWUnLCAnPG91dGZpbGUubWFlPic=

>  <r_lp_tautomer_probability>  (228) 
1

>  <r_epik_Ionization_Penalty>  (228) 
5.77128e-05

>  <r_epik_Ionization_Penalty_Charging>  (228) 
0

>  <r_epik_Ionization_Penalty_Neutral>  (228) 
5.77128e-05

>  <r_epik_State_Penalty>  (228) 
-0

>  <r_epik_Charging_Adjusted_Penalty>  (228) 
0

>  <i_epik_Tot_Q>  (228) 
0

>  <i_epik_Tot_abs_Q>  (228) 
0

>  <s_lp_Force_Field>  (228) 
OPLS3e

>  <r_lp_Energy>  (228) 
13.6589

>  <b_lp_Chiralities_Consistent>  (228) 
1

>  <s_lp_Variant>  (228) 
83:0-1

>  <s_i_glide_gridfile>  (228) 
pfpi4k_grid

>  <i_i_glide_lignum>  (228) 
36

>  <i_i_glide_rotatable_bonds>  (228) 
0

>  <r_i_docking_score>  (228) 
-3.76327

>  <r_i_glide_ligand_efficiency>  (228) 
-0.313606

>  <r_i_glide_ligand_efficiency_sa>  (228) 
-0.717978

>  <r_i_glide_ligand_efficiency_ln>  (228) 
-1.07988

>  <r_i_glide_gscore>  (228) 
-3.76327

>  <r_i_glide_lipo>  (228) 
0

>  <r_i_glide_hbond>  (228) 
-0.120897

>  <r_i_glide_metal>  (228) 
-0

>  <r_i_glide_rewards>  (228) 
-2.20773

>  <r_i_glide_evdw>  (228) 
-15.727

>  <r_i_glide_ecoul>  (228) 
-3.50333

>  <r_i_glide_erotb>  (228) 
0

>  <r_i_glide_esite>  (228) 
-0.122792

>  <r_i_glide_emodel>  (228) 
-24.4734

>  <r_i_glide_energy>  (228) 
-19.2304

>  <r_i_glide_einternal>  (228) 
0

>  <r_i_glide_intrahb_reward>  (228) 
-0

>  <i_i_glide_confnum>  (228) 
1

>  <i_i_glide_posenum>  (228) 
3

>  <r_i_glide_eff_state_penalty>  (228) 
0

>  <ligand_id>  (228) 
83

>  <original_smiles>  (228) 
c1cnc2sc3ncnn3c2c1

>  <smiles>  (228) 
[H]c1nc2sc3nc([H])c([H])c([H])c3n2n1

$$$$
83:0:2
     RDKit          3D

 16 18  0  0  1  0  0  0  0  0999 V2000
   -1.5156    3.6801    7.3609 C   0  0  0  0  0  0  0  0  0  0  0  0
   -2.1663    2.5376    7.9034 C   0  0  0  0  0  0  0  0  0  0  0  0
   -2.2669    1.3293    7.2925 N   0  0  0  0  0  0  0  0  0  0  0  0
   -1.6820    1.3103    6.1019 C   0  0  0  0  0  0  0  0  0  0  0  0
   -1.6939   -0.1884    5.1434 S   0  0  0  0  0  0  0  0  0  0  0  0
   -0.7771    0.6850    3.8839 C   0  0  0  0  0  0  0  0  0  0  0  0
   -0.2313    0.5445    2.7108 N   0  0  0  0  0  0  0  0  0  0  0  0
    0.3114    1.7814    2.4353 C   0  0  0  0  0  0  0  0  0  0  0  0
    0.1544    2.7082    3.3895 N   0  0  0  0  0  0  0  0  0  0  0  0
   -0.5390    1.9757    4.2629 N   0  0  0  0  0  0  0  0  0  0  0  0
   -0.9964    2.3618    5.4332 C   0  0  0  0  0  0  0  0  0  0  0  0
   -0.9010    3.6105    6.0837 C   0  0  0  0  0  0  0  0  0  0  0  0
   -1.4906    4.5902    7.9405 H   0  0  0  0  0  0  0  0  0  0  0  0
   -2.6267    2.5897    8.8772 H   0  0  0  0  0  0  0  0  0  0  0  0
    0.8343    2.0001    1.5148 H   0  0  0  0  0  0  0  0  0  0  0  0
   -0.3967    4.4636    5.6534 H   0  0  0  0  0  0  0  0  0  0  0  0
  1 12  2  0
  1  2  1  0
  1 13  1  0
  2  3  2  0
  2 14  1  0
  3  4  1  0
  4 11  2  0
  4  5  1  0
  5  6  1  0
  6 10  1  0
  6  7  2  0
  7  8  1  0
  8  9  2  0
  8 15  1  0
  9 10  1  0
 10 11  1  0
 11 12  1  0
 12 16  1  0
M  END
>  <i_m_ct_stereo_status>  (229) 
1

>  <s_m_source_file>  (229) 
/var/tmp/pbs.5076255.sched01/tmpl83nofxy/76c90atywu.sdf

>  <i_m_source_file_index>  (229) 
36

>  <i_lp_mmshare_version>  (229) 
48012

>  <i_f3d_flags>  (229) 
0

>  <s_epik_input>  (229) 
bjFbY0hdW2NIXVtjSF1jKGMxMiluM2MoczIpbltjSF1uMw==

>  <s_epik_cmdline>  (229) 
J2VwaWtfcHl0aG9uJywgJy1waHQnLCAnMi4wJywgJy1waCcsICc3LjAnLCAnLXRuJywgJzgnLCAnLW1hJywgJzIwMCcsICctaW1hZScsICc8aW5maWxlLm1hZT4nLCAnLW9tYWUnLCAnPG91dGZpbGUubWFlPic=

>  <r_lp_tautomer_probability>  (229) 
1

>  <r_epik_Ionization_Penalty>  (229) 
5.77128e-05

>  <r_epik_Ionization_Penalty_Charging>  (229) 
0

>  <r_epik_Ionization_Penalty_Neutral>  (229) 
5.77128e-05

>  <r_epik_State_Penalty>  (229) 
-0

>  <r_epik_Charging_Adjusted_Penalty>  (229) 
0

>  <i_epik_Tot_Q>  (229) 
0

>  <i_epik_Tot_abs_Q>  (229) 
0

>  <s_lp_Force_Field>  (229) 
OPLS3e

>  <r_lp_Energy>  (229) 
13.6589

>  <b_lp_Chiralities_Consistent>  (229) 
1

>  <s_lp_Variant>  (229) 
83:0-1

>  <s_i_glide_gridfile>  (229) 
pfpi4k_grid

>  <i_i_glide_lignum>  (229) 
36

>  <i_i_glide_rotatable_bonds>  (229) 
0

>  <r_i_docking_score>  (229) 
-3.5346

>  <r_i_glide_ligand_efficiency>  (229) 
-0.29455

>  <r_i_glide_ligand_efficiency_sa>  (229) 
-0.674351

>  <r_i_glide_ligand_efficiency_ln>  (229) 
-1.01426

>  <r_i_glide_gscore>  (229) 
-3.5346

>  <r_i_glide_lipo>  (229) 
-0.0464094

>  <r_i_glide_hbond>  (229) 
-0.16

>  <r_i_glide_metal>  (229) 
-0

>  <r_i_glide_rewards>  (229) 
-2.20773

>  <r_i_glide_evdw>  (229) 
-15.4789

>  <r_i_glide_ecoul>  (229) 
-1.51705

>  <r_i_glide_erotb>  (229) 
0

>  <r_i_glide_esite>  (229) 
-0.118958

>  <r_i_glide_emodel>  (229) 
-21.9231

>  <r_i_glide_energy>  (229) 
-16.9959

>  <r_i_glide_einternal>  (229) 
0

>  <r_i_glide_intrahb_reward>  (229) 
-0

>  <i_i_glide_confnum>  (229) 
2

>  <i_i_glide_posenum>  (229) 
36

>  <r_i_glide_eff_state_penalty>  (229) 
0

>  <ligand_id>  (229) 
83

>  <original_smiles>  (229) 
c1cnc2sc3ncnn3c2c1

>  <smiles>  (229) 
[H]c1nc2sc3nc([H])c([H])c([H])c3n2n1

$$$$
84:0:0
     RDKit          3D

 79 85  0  0  1  0  0  0  0  0999 V2000
    3.3360   -6.2238    7.4032 C   0  0  0  0  0  0  0  0  0  0  0  0
    3.0313   -5.1004    6.5685 O   0  0  0  0  0  0  0  0  0  0  0  0
    2.6015   -5.3753    5.2631 C   0  0  2  0  0  0  0  0  0  0  0  0
    2.0308   -6.6542    5.1676 O   0  0  0  0  0  0  0  0  0  0  0  0
    1.3479   -6.7567    3.9510 C   0  0  2  0  0  0  0  0  0  0  0  0
    0.5108   -8.0208    3.7462 C   0  0  0  0  0  0  0  0  0  0  0  0
   -0.2857   -8.4620    4.5556 O   0  0  0  0  0  0  0  0  0  0  0  0
    0.9286   -8.5556    2.4257 C   0  0  0  0  0  0  0  0  0  0  0  0
    1.4833   -7.4906    1.8461 C   0  0  0  0  0  0  0  0  0  0  0  0
    0.8133   -6.5482    0.8553 C   0  0  0  0  0  0  0  0  0  0  0  0
    2.4340   -6.9747    2.9053 C   0  0  2  0  0  0  0  0  0  0  0  0
    3.1876   -8.3362    3.1962 C   0  0  0  0  0  0  0  0  0  0  0  0
    2.1165   -9.4057    2.8370 C   0  0  0  0  0  0  0  0  0  0  0  0
    3.2153   -5.6162    2.7816 C   0  0  2  0  0  0  0  0  0  0  0  0
    4.3411   -5.6360    1.7124 C   0  0  1  0  0  0  0  0  0  0  0  0
    4.1533   -6.7082    0.8100 O   0  0  0  0  0  0  0  0  0  0  0  0
    4.2996   -4.3774    0.8782 C   0  0  2  0  0  0  0  0  0  0  0  0
    5.1389   -4.4864   -0.3955 C   0  0  0  0  0  0  0  0  0  0  0  0
    4.9834   -3.1112   -1.0036 C   0  0  1  0  0  0  0  0  0  0  0  0
    3.7226   -3.0608   -1.9047 C   0  0  0  0  0  0  0  0  0  0  0  0
    5.0458   -2.1697    0.2538 C   0  0  0  0  0  0  0  0  0  0  0  0
    6.5436   -1.7262    0.3285 C   0  0  0  0  0  0  0  0  0  0  0  0
    4.0632   -0.9910   -0.0054 C   0  0  0  0  0  0  0  0  0  0  0  0
    4.6589   -3.0313    1.5131 C   0  0  0  0  0  0  0  0  0  0  0  0
    4.5869   -2.6317    2.8429 C   0  0  0  0  0  0  0  0  0  0  0  0
    4.7985   -1.1242    3.2757 C   0  0  1  0  0  0  0  0  0  0  0  0
    5.5402   -0.2567    2.4655 O   0  0  0  0  0  0  0  0  0  0  0  0
    3.4615   -0.4972    3.7398 C   0  0  2  0  0  0  0  0  0  0  0  0
    3.5325    0.9129    3.8241 O   0  0  0  0  0  0  0  0  0  0  0  0
    3.1224   -1.0923    5.0747 C   0  0  0  0  0  0  0  0  0  0  0  0
    2.8201   -2.5202    4.6342 C   0  0  1  0  0  0  0  0  0  0  0  0
    1.8735   -2.1415    3.4703 C   0  0  0  0  0  0  0  0  0  0  0  0
    2.4336   -0.9445    2.9101 O   0  0  0  0  0  0  0  0  0  0  0  0
    4.0718   -3.4076    4.1625 C   0  0  2  0  0  0  0  0  0  0  0  0
    5.2028   -3.2577    5.2586 C   0  0  0  0  0  0  0  0  0  0  0  0
    3.7383   -5.0306    4.1554 C   0  0  1  0  0  0  0  0  0  0  0  0
    5.0135   -5.8576    4.5605 C   0  0  0  0  0  0  0  0  0  0  0  0
    3.7338   -5.8646    8.3509 H   0  0  0  0  0  0  0  0  0  0  0  0
    4.0747   -6.8962    6.9671 H   0  0  0  0  0  0  0  0  0  0  0  0
    2.4439   -6.8179    7.6180 H   0  0  0  0  0  0  0  0  0  0  0  0
    1.7231   -4.7503    5.1225 H   0  0  0  0  0  0  0  0  0  0  0  0
    0.6856   -5.9206    3.7386 H   0  0  0  0  0  0  0  0  0  0  0  0
    0.7651   -5.5519    1.2687 H   0  0  0  0  0  0  0  0  0  0  0  0
   -0.1836   -6.9010    0.5756 H   0  0  0  0  0  0  0  0  0  0  0  0
    1.4262   -6.5053   -0.0416 H   0  0  0  0  0  0  0  0  0  0  0  0
    4.0760   -8.4707    2.5754 H   0  0  0  0  0  0  0  0  0  0  0  0
    3.4795   -8.4697    4.2374 H   0  0  0  0  0  0  0  0  0  0  0  0
    1.9076  -10.1109    3.6423 H   0  0  0  0  0  0  0  0  0  0  0  0
    2.4375   -9.9886    1.9656 H   0  0  0  0  0  0  0  0  0  0  0  0
    2.4610   -4.9159    2.4492 H   0  0  0  0  0  0  0  0  0  0  0  0
    5.3483   -5.7699    2.0947 H   0  0  0  0  0  0  0  0  0  0  0  0
    4.8279   -6.6619    0.1560 H   0  0  0  0  0  0  0  0  0  0  0  0
    3.2681   -4.2643    0.5503 H   0  0  0  0  0  0  0  0  0  0  0  0
    6.1847   -4.6671   -0.1337 H   0  0  0  0  0  0  0  0  0  0  0  0
    4.8266   -5.2621   -1.0945 H   0  0  0  0  0  0  0  0  0  0  0  0
    5.8015   -2.9354   -1.6953 H   0  0  0  0  0  0  0  0  0  0  0  0
    2.7936   -3.2161   -1.3585 H   0  0  0  0  0  0  0  0  0  0  0  0
    3.7755   -3.8370   -2.6696 H   0  0  0  0  0  0  0  0  0  0  0  0
    3.6430   -2.1127   -2.4375 H   0  0  0  0  0  0  0  0  0  0  0  0
    6.6489   -0.6693    0.0812 H   0  0  0  0  0  0  0  0  0  0  0  0
    7.2084   -2.2737   -0.3333 H   0  0  0  0  0  0  0  0  0  0  0  0
    6.9731   -1.8938    1.3128 H   0  0  0  0  0  0  0  0  0  0  0  0
    4.2835   -0.4943   -0.9471 H   0  0  0  0  0  0  0  0  0  0  0  0
    4.0411   -0.2006    0.7315 H   0  0  0  0  0  0  0  0  0  0  0  0
    3.0304   -1.3402   -0.0416 H   0  0  0  0  0  0  0  0  0  0  0  0
    5.4751   -1.0699    4.1153 H   0  0  0  0  0  0  0  0  0  0  0  0
    6.4396   -0.5328    2.4656 H   0  0  0  0  0  0  0  0  0  0  0  0
    3.8642    1.2334    2.9976 H   0  0  0  0  0  0  0  0  0  0  0  0
    3.8845   -0.9318    5.8338 H   0  0  0  0  0  0  0  0  0  0  0  0
    2.2106   -0.6130    5.4435 H   0  0  0  0  0  0  0  0  0  0  0  0
    2.2997   -2.8996    5.5084 H   0  0  0  0  0  0  0  0  0  0  0  0
    1.7716   -2.9067    2.7063 H   0  0  0  0  0  0  0  0  0  0  0  0
    0.8715   -1.9227    3.8341 H   0  0  0  0  0  0  0  0  0  0  0  0
    4.9928   -3.8031    6.1722 H   0  0  0  0  0  0  0  0  0  0  0  0
    5.3864   -2.2771    5.6690 H   0  0  0  0  0  0  0  0  0  0  0  0
    6.1730   -3.5677    4.8814 H   0  0  0  0  0  0  0  0  0  0  0  0
    5.9164   -5.5765    4.0126 H   0  0  0  0  0  0  0  0  0  0  0  0
    4.8843   -6.9274    4.4174 H   0  0  0  0  0  0  0  0  0  0  0  0
    5.3071   -5.7644    5.6007 H   0  0  0  0  0  0  0  0  0  0  0  0
  1  2  1  0
  1 38  1  0
  1 39  1  0
  1 40  1  0
  2  3  1  0
  3 36  1  0
  3  4  1  0
  3 41  1  6
  4  5  1  0
  5 11  1  0
  5  6  1  0
  5 42  1  6
  6  7  2  0
  6  8  1  0
  8 13  1  0
  8  9  2  0
  9 10  1  0
  9 11  1  0
 10 43  1  0
 10 44  1  0
 10 45  1  0
 11 12  1  1
 11 14  1  0
 12 13  1  0
 12 46  1  0
 12 47  1  0
 13 48  1  0
 13 49  1  0
 14 36  1  0
 14 15  1  0
 14 50  1  6
 15 16  1  0
 15 17  1  0
 15 51  1  1
 16 52  1  0
 17 24  1  0
 17 18  1  0
 17 53  1  6
 18 19  1  0
 18 54  1  0
 18 55  1  0
 19 20  1  0
 19 21  1  0
 19 56  1  6
 20 57  1  0
 20 58  1  0
 20 59  1  0
 21 22  1  0
 21 23  1  0
 21 24  1  0
 22 60  1  0
 22 61  1  0
 22 62  1  0
 23 63  1  0
 23 64  1  0
 23 65  1  0
 24 25  2  0
 25 34  1  0
 25 26  1  0
 26 27  1  0
 26 28  1  0
 26 66  1  1
 27 67  1  0
 28 33  1  0
 28 29  1  1
 28 30  1  0
 29 68  1  0
 30 31  1  0
 30 69  1  0
 30 70  1  0
 31 32  1  0
 31 34  1  0
 31 71  1  1
 32 33  1  0
 32 72  1  0
 32 73  1  0
 34 35  1  1
 34 36  1  0
 35 74  1  0
 35 75  1  0
 35 76  1  0
 36 37  1  1
 37 77  1  0
 37 78  1  0
 37 79  1  0
M  END
>  <i_m_ct_stereo_status>  (230) 
1

>  <s_m_source_file>  (230) 
/var/tmp/pbs.5076255.sched01/tmpl83nofxy/76c90atywu.sdf

>  <i_m_source_file_index>  (230) 
37

>  <i_lp_mmshare_version>  (230) 
48012

>  <i_f3d_flags>  (230) 
0

>  <s_epik_input>  (230) 
W0NIM11DMT1DKFtDSDJdW0NIMl0yKUMoPU8pW0NASF0oW0NAXTEyMylPW0NAQEhdKE9bQ0gzXSlbQ0BAXTQoW0NIM10pW0NASF0zW0NAQEhdKFtPSF0pW0NASF01QyhDKFtDSDNdKShbQ0gzXSlbQ0BASF0oW0NIMl01KVtDSDNdKT1DNltDQEBdNChbQ0gzXSlbQ0BIXTdbQ0gyXVtDQEBdKFtPSF0pKFtDQEBIXTZbT0hdKU9bQ0gyXTc=

>  <s_epik_cmdline>  (230) 
J2VwaWtfcHl0aG9uJywgJy1waHQnLCAnMi4wJywgJy1waCcsICc3LjAnLCAnLXRuJywgJzgnLCAnLW1hJywgJzIwMCcsICctaW1hZScsICc8aW5maWxlLm1hZT4nLCAnLW9tYWUnLCAnPG91dGZpbGUubWFlPic=

>  <r_lp_tautomer_probability>  (230) 
1

>  <r_epik_Ionization_Penalty>  (230) 
2.69191e-07

>  <r_epik_Ionization_Penalty_Charging>  (230) 
0

>  <r_epik_Ionization_Penalty_Neutral>  (230) 
2.69191e-07

>  <r_epik_State_Penalty>  (230) 
-0

>  <r_epik_Charging_Adjusted_Penalty>  (230) 
0

>  <i_epik_Tot_Q>  (230) 
0

>  <i_epik_Tot_abs_Q>  (230) 
0

>  <s_epik_Chemistry_Notes>  (230) 
This compound contains an acetal/aminal-like group ( X-CH(R)-Y where X, Y are N, S, or O) that may be acid/base labile, releasing an aldehyde.

>  <s_lp_Force_Field>  (230) 
OPLS3e

>  <r_lp_Energy>  (230) 
202.35

>  <b_lp_Chiralities_Consistent>  (230) 
1

>  <s_lp_Variant>  (230) 
84:0-1

>  <s_i_glide_gridfile>  (230) 
pfpi4k_grid

>  <i_i_glide_lignum>  (230) 
37

>  <i_i_glide_rotatable_bonds>  (230) 
4

>  <r_i_docking_score>  (230) 
-1.89615

>  <r_i_glide_ligand_efficiency>  (230) 
-0.0512473

>  <r_i_glide_ligand_efficiency_sa>  (230) 
-0.170767

>  <r_i_glide_ligand_efficiency_ln>  (230) 
-0.41123

>  <r_i_glide_gscore>  (230) 
-1.89615

>  <r_i_glide_lipo>  (230) 
-0.350523

>  <r_i_glide_hbond>  (230) 
0

>  <r_i_glide_metal>  (230) 
-0

>  <r_i_glide_rewards>  (230) 
-0.0076299

>  <r_i_glide_evdw>  (230) 
-26.307

>  <r_i_glide_ecoul>  (230) 
-1.30955

>  <r_i_glide_erotb>  (230) 
0

>  <r_i_glide_esite>  (230) 
-0.0262135

>  <r_i_glide_emodel>  (230) 
-27.5575

>  <r_i_glide_energy>  (230) 
-27.6166

>  <r_i_glide_einternal>  (230) 
5.41633

>  <r_i_glide_intrahb_reward>  (230) 
-0

>  <i_i_glide_confnum>  (230) 
2

>  <i_i_glide_posenum>  (230) 
38

>  <r_i_glide_eff_state_penalty>  (230) 
0

>  <ligand_id>  (230) 
84

>  <original_smiles>  (230) 
COC1OC2C(=O)C3=C(C)C2(CC3)C2C(O)C3CC(C)C(C)(C)C3=C3C(O)C4(O)CC(CO4)C3(C)C12C

>  <smiles>  (230) 
[H]OC1([H])C2=C3C([H])(C([H])([H])C([H])(C([H])([H])[H])C3(C([H])([H])[H])C([H])([H])[H])C([H])(O[H])C3([H])C45C(C([H])([H])[H])=C(C(=O)C4([H])OC([H])(OC([H])([H])[H])C3(C([H])([H])[H])C2(C([H])([H])[H])C2([H])C([H])([H])OC1(O[H])C2([H])[H])C([H])([H])C5([H])[H]

$$$$
84:0:1
     RDKit          3D

 79 85  0  0  1  0  0  0  0  0999 V2000
    2.9008   -6.0007    7.4106 C   0  0  0  0  0  0  0  0  0  0  0  0
    2.6502   -4.9180    6.5107 O   0  0  0  0  0  0  0  0  0  0  0  0
    2.2920   -5.2512    5.1981 C   0  0  2  0  0  0  0  0  0  0  0  0
    1.7305   -6.5358    5.1318 O   0  0  0  0  0  0  0  0  0  0  0  0
    1.1184   -6.6981    3.8802 C   0  0  2  0  0  0  0  0  0  0  0  0
    0.2870   -7.9652    3.6929 C   0  0  0  0  0  0  0  0  0  0  0  0
   -0.5564   -8.3686    4.4740 O   0  0  0  0  0  0  0  0  0  0  0  0
    0.7806   -8.5635    2.4293 C   0  0  0  0  0  0  0  0  0  0  0  0
    1.3642   -7.5258    1.8252 C   0  0  0  0  0  0  0  0  0  0  0  0
    0.7489   -6.6365    0.7602 C   0  0  0  0  0  0  0  0  0  0  0  0
    2.2521   -6.9610    2.9128 C   0  0  2  0  0  0  0  0  0  0  0  0
    2.9933   -8.3016    3.2999 C   0  0  0  0  0  0  0  0  0  0  0  0
    1.9452   -9.3924    2.9339 C   0  0  0  0  0  0  0  0  0  0  0  0
    3.0428   -5.6034    2.7674 C   0  0  2  0  0  0  0  0  0  0  0  0
    4.2226   -5.6673    1.7595 C   0  0  1  0  0  0  0  0  0  0  0  0
    4.0806   -6.7790    0.8963 O   0  0  0  0  0  0  0  0  0  0  0  0
    4.2251   -4.4467    0.8683 C   0  0  2  0  0  0  0  0  0  0  0  0
    5.1340   -4.6083   -0.3503 C   0  0  0  0  0  0  0  0  0  0  0  0
    5.0104   -3.2631   -1.0240 C   0  0  1  0  0  0  0  0  0  0  0  0
    3.8039   -3.2514   -1.9969 C   0  0  0  0  0  0  0  0  0  0  0  0
    5.0061   -2.2646    0.1892 C   0  0  0  0  0  0  0  0  0  0  0  0
    6.4949   -1.8149    0.3268 C   0  0  0  0  0  0  0  0  0  0  0  0
    4.0361   -1.0995   -0.1775 C   0  0  0  0  0  0  0  0  0  0  0  0
    4.5487   -3.0744    1.4625 C   0  0  0  0  0  0  0  0  0  0  0  0
    4.4035   -2.6148    2.7687 C   0  0  0  0  0  0  0  0  0  0  0  0
    4.5940   -1.0919    3.1423 C   0  0  1  0  0  0  0  0  0  0  0  0
    5.3823   -0.2568    2.3308 O   0  0  0  0  0  0  0  0  0  0  0  0
    3.2357   -0.4437    3.5048 C   0  0  2  0  0  0  0  0  0  0  0  0
    3.2916    0.9647    3.5459 O   0  0  0  0  0  0  0  0  0  0  0  0
    2.8197   -0.9810    4.8447 C   0  0  0  0  0  0  0  0  0  0  0  0
    2.5425   -2.4294    4.4512 C   0  0  1  0  0  0  0  0  0  0  0  0
    1.6619   -2.1040    3.2219 C   0  0  0  0  0  0  0  0  0  0  0  0
    2.2535   -0.9317    2.6400 O   0  0  0  0  0  0  0  0  0  0  0  0
    3.8195   -3.3332    4.0904 C   0  0  2  0  0  0  0  0  0  0  0  0
    4.8900   -3.1291    5.2332 C   0  0  0  0  0  0  0  0  0  0  0  0
    3.4882   -4.9557    4.1385 C   0  0  1  0  0  0  0  0  0  0  0  0
    4.7383   -5.7626    4.6474 C   0  0  0  0  0  0  0  0  0  0  0  0
    3.2498   -5.6006    8.3628 H   0  0  0  0  0  0  0  0  0  0  0  0
    3.6601   -6.6940    7.0476 H   0  0  0  0  0  0  0  0  0  0  0  0
    1.9985   -6.5816    7.6030 H   0  0  0  0  0  0  0  0  0  0  0  0
    1.4220   -4.6369    4.9802 H   0  0  0  0  0  0  0  0  0  0  0  0
    0.4638   -5.8717    3.5981 H   0  0  0  0  0  0  0  0  0  0  0  0
    0.6770   -5.6239    1.1251 H   0  0  0  0  0  0  0  0  0  0  0  0
   -0.2311   -7.0013    0.4476 H   0  0  0  0  0  0  0  0  0  0  0  0
    1.4121   -6.6259   -0.0999 H   0  0  0  0  0  0  0  0  0  0  0  0
    3.9134   -8.4615    2.7348 H   0  0  0  0  0  0  0  0  0  0  0  0
    3.2289   -8.3882    4.3631 H   0  0  0  0  0  0  0  0  0  0  0  0
    1.6915  -10.0602    3.7592 H   0  0  0  0  0  0  0  0  0  0  0  0
    2.3100  -10.0093    2.1089 H   0  0  0  0  0  0  0  0  0  0  0  0
    2.3043   -4.9205    2.3614 H   0  0  0  0  0  0  0  0  0  0  0  0
    5.2076   -5.7826    2.2043 H   0  0  0  0  0  0  0  0  0  0  0  0
    4.7962   -6.7626    0.2810 H   0  0  0  0  0  0  0  0  0  0  0  0
    3.2144   -4.3529    0.4822 H   0  0  0  0  0  0  0  0  0  0  0  0
    6.1621   -4.7774   -0.0233 H   0  0  0  0  0  0  0  0  0  0  0  0
    4.8592   -5.4177   -1.0301 H   0  0  0  0  0  0  0  0  0  0  0  0
    5.8664   -3.1175   -1.6796 H   0  0  0  0  0  0  0  0  0  0  0  0
    2.8449   -3.3969   -1.4994 H   0  0  0  0  0  0  0  0  0  0  0  0
    3.9119   -4.0453   -2.7343 H   0  0  0  0  0  0  0  0  0  0  0  0
    3.7482   -2.3260   -2.5704 H   0  0  0  0  0  0  0  0  0  0  0  0
    6.6163   -0.7714    0.0440 H   0  0  0  0  0  0  0  0  0  0  0  0
    7.1970   -2.3926   -0.2715 H   0  0  0  0  0  0  0  0  0  0  0  0
    6.8677   -1.9320    1.3436 H   0  0  0  0  0  0  0  0  0  0  0  0
    4.3096   -0.6512   -1.1314 H   0  0  0  0  0  0  0  0  0  0  0  0
    3.9499   -0.2732    0.5123 H   0  0  0  0  0  0  0  0  0  0  0  0
    3.0148   -1.4676   -0.2588 H   0  0  0  0  0  0  0  0  0  0  0  0
    5.2292   -0.9974    4.0066 H   0  0  0  0  0  0  0  0  0  0  0  0
    4.9691   -0.2277    1.4806 H   0  0  0  0  0  0  0  0  0  0  0  0
    3.6603    1.2781    2.7299 H   0  0  0  0  0  0  0  0  0  0  0  0
    3.5415   -0.7866    5.6357 H   0  0  0  0  0  0  0  0  0  0  0  0
    1.8914   -0.4915    5.1417 H   0  0  0  0  0  0  0  0  0  0  0  0
    1.9772   -2.7701    5.3145 H   0  0  0  0  0  0  0  0  0  0  0  0
    1.6020   -2.9038    2.4917 H   0  0  0  0  0  0  0  0  0  0  0  0
    0.6428   -1.8712    3.5216 H   0  0  0  0  0  0  0  0  0  0  0  0
    4.6376   -3.6367    6.1583 H   0  0  0  0  0  0  0  0  0  0  0  0
    5.0519   -2.1315    5.6081 H   0  0  0  0  0  0  0  0  0  0  0  0
    5.8785   -3.4491    4.9101 H   0  0  0  0  0  0  0  0  0  0  0  0
    5.6708   -5.5002    4.1442 H   0  0  0  0  0  0  0  0  0  0  0  0
    4.6187   -6.8332    4.5462 H   0  0  0  0  0  0  0  0  0  0  0  0
    4.9703   -5.6227    5.7027 H   0  0  0  0  0  0  0  0  0  0  0  0
  1  2  1  0
  1 38  1  0
  1 39  1  0
  1 40  1  0
  2  3  1  0
  3 36  1  0
  3  4  1  0
  3 41  1  6
  4  5  1  0
  5 11  1  0
  5  6  1  0
  5 42  1  6
  6  7  2  0
  6  8  1  0
  8 13  1  0
  8  9  2  0
  9 10  1  0
  9 11  1  0
 10 43  1  0
 10 44  1  0
 10 45  1  0
 11 12  1  1
 11 14  1  0
 12 13  1  0
 12 46  1  0
 12 47  1  0
 13 48  1  0
 13 49  1  0
 14 36  1  0
 14 15  1  0
 14 50  1  6
 15 16  1  0
 15 17  1  0
 15 51  1  1
 16 52  1  0
 17 24  1  0
 17 18  1  0
 17 53  1  6
 18 19  1  0
 18 54  1  0
 18 55  1  0
 19 20  1  0
 19 21  1  0
 19 56  1  6
 20 57  1  0
 20 58  1  0
 20 59  1  0
 21 22  1  0
 21 23  1  0
 21 24  1  0
 22 60  1  0
 22 61  1  0
 22 62  1  0
 23 63  1  0
 23 64  1  0
 23 65  1  0
 24 25  2  0
 25 34  1  0
 25 26  1  0
 26 27  1  0
 26 28  1  0
 26 66  1  1
 27 67  1  0
 28 33  1  0
 28 29  1  1
 28 30  1  0
 29 68  1  0
 30 31  1  0
 30 69  1  0
 30 70  1  0
 31 32  1  0
 31 34  1  0
 31 71  1  1
 32 33  1  0
 32 72  1  0
 32 73  1  0
 34 35  1  1
 34 36  1  0
 35 74  1  0
 35 75  1  0
 35 76  1  0
 36 37  1  1
 37 77  1  0
 37 78  1  0
 37 79  1  0
M  END
>  <i_m_ct_stereo_status>  (231) 
1

>  <s_m_source_file>  (231) 
/var/tmp/pbs.5076255.sched01/tmpl83nofxy/76c90atywu.sdf

>  <i_m_source_file_index>  (231) 
37

>  <i_lp_mmshare_version>  (231) 
48012

>  <i_f3d_flags>  (231) 
0

>  <s_epik_input>  (231) 
W0NIM11DMT1DKFtDSDJdW0NIMl0yKUMoPU8pW0NASF0oW0NAXTEyMylPW0NAQEhdKE9bQ0gzXSlbQ0BAXTQoW0NIM10pW0NASF0zW0NAQEhdKFtPSF0pW0NASF01QyhDKFtDSDNdKShbQ0gzXSlbQ0BASF0oW0NIMl01KVtDSDNdKT1DNltDQEBdNChbQ0gzXSlbQ0BIXTdbQ0gyXVtDQEBdKFtPSF0pKFtDQEBIXTZbT0hdKU9bQ0gyXTc=

>  <s_epik_cmdline>  (231) 
J2VwaWtfcHl0aG9uJywgJy1waHQnLCAnMi4wJywgJy1waCcsICc3LjAnLCAnLXRuJywgJzgnLCAnLW1hJywgJzIwMCcsICctaW1hZScsICc8aW5maWxlLm1hZT4nLCAnLW9tYWUnLCAnPG91dGZpbGUubWFlPic=

>  <r_lp_tautomer_probability>  (231) 
1

>  <r_epik_Ionization_Penalty>  (231) 
2.69191e-07

>  <r_epik_Ionization_Penalty_Charging>  (231) 
0

>  <r_epik_Ionization_Penalty_Neutral>  (231) 
2.69191e-07

>  <r_epik_State_Penalty>  (231) 
-0

>  <r_epik_Charging_Adjusted_Penalty>  (231) 
0

>  <i_epik_Tot_Q>  (231) 
0

>  <i_epik_Tot_abs_Q>  (231) 
0

>  <s_epik_Chemistry_Notes>  (231) 
This compound contains an acetal/aminal-like group ( X-CH(R)-Y where X, Y are N, S, or O) that may be acid/base labile, releasing an aldehyde.

>  <s_lp_Force_Field>  (231) 
OPLS3e

>  <r_lp_Energy>  (231) 
202.35

>  <b_lp_Chiralities_Consistent>  (231) 
1

>  <s_lp_Variant>  (231) 
84:0-1

>  <s_i_glide_gridfile>  (231) 
pfpi4k_grid

>  <i_i_glide_lignum>  (231) 
37

>  <i_i_glide_rotatable_bonds>  (231) 
4

>  <r_i_docking_score>  (231) 
-1.80798

>  <r_i_glide_ligand_efficiency>  (231) 
-0.0488642

>  <r_i_glide_ligand_efficiency_sa>  (231) 
-0.162826

>  <r_i_glide_ligand_efficiency_ln>  (231) 
-0.392108

>  <r_i_glide_gscore>  (231) 
-1.80798

>  <r_i_glide_lipo>  (231) 
-0.315917

>  <r_i_glide_hbond>  (231) 
0

>  <r_i_glide_metal>  (231) 
-0

>  <r_i_glide_rewards>  (231) 
-0.00386128

>  <r_i_glide_evdw>  (231) 
-26.6602

>  <r_i_glide_ecoul>  (231) 
-0.829871

>  <r_i_glide_erotb>  (231) 
0

>  <r_i_glide_esite>  (231) 
-0.0307078

>  <r_i_glide_emodel>  (231) 
-27.4716

>  <r_i_glide_energy>  (231) 
-27.4901

>  <r_i_glide_einternal>  (231) 
5.00064

>  <r_i_glide_intrahb_reward>  (231) 
-0

>  <i_i_glide_confnum>  (231) 
2

>  <i_i_glide_posenum>  (231) 
1

>  <r_i_glide_eff_state_penalty>  (231) 
0

>  <ligand_id>  (231) 
84

>  <original_smiles>  (231) 
COC1OC2C(=O)C3=C(C)C2(CC3)C2C(O)C3CC(C)C(C)(C)C3=C3C(O)C4(O)CC(CO4)C3(C)C12C

>  <smiles>  (231) 
[H]OC1([H])C2=C3C([H])(C([H])([H])C([H])(C([H])([H])[H])C3(C([H])([H])[H])C([H])([H])[H])C([H])(O[H])C3([H])C45C(C([H])([H])[H])=C(C(=O)C4([H])OC([H])(OC([H])([H])[H])C3(C([H])([H])[H])C2(C([H])([H])[H])C2([H])C([H])([H])OC1(O[H])C2([H])[H])C([H])([H])C5([H])[H]

$$$$
84:0:2
     RDKit          3D

 79 85  0  0  1  0  0  0  0  0999 V2000
   -0.2029   -4.1644    7.5280 C   0  0  0  0  0  0  0  0  0  0  0  0
    0.9757   -4.1043    6.7415 O   0  0  0  0  0  0  0  0  0  0  0  0
    0.8651   -4.6050    5.4429 C   0  0  2  0  0  0  0  0  0  0  0  0
    0.4173   -5.9374    5.4620 O   0  0  0  0  0  0  0  0  0  0  0  0
    0.0705   -6.2915    4.1449 C   0  0  2  0  0  0  0  0  0  0  0  0
   -0.6618   -7.6021    3.8825 C   0  0  0  0  0  0  0  0  0  0  0  0
   -1.7176   -7.8976    4.4459 O   0  0  0  0  0  0  0  0  0  0  0  0
    0.0715   -8.3039    2.8028 C   0  0  0  0  0  0  0  0  0  0  0  0
    0.7663   -7.3147    2.2526 C   0  0  0  0  0  0  0  0  0  0  0  0
    0.3937   -6.5950    0.9756 C   0  0  0  0  0  0  0  0  0  0  0  0
    1.3861   -6.5804    3.4290 C   0  0  2  0  0  0  0  0  0  0  0  0
    2.0488   -7.8412    4.1095 C   0  0  0  0  0  0  0  0  0  0  0  0
    1.1036   -9.0055    3.6575 C   0  0  0  0  0  0  0  0  0  0  0  0
    2.1506   -5.2099    3.2975 C   0  0  2  0  0  0  0  0  0  0  0  0
    3.5198   -5.3294    2.5833 C   0  0  1  0  0  0  0  0  0  0  0  0
    3.5860   -6.5282    1.8365 O   0  0  0  0  0  0  0  0  0  0  0  0
    3.6823   -4.2186    1.5735 C   0  0  2  0  0  0  0  0  0  0  0  0
    4.8276   -4.4767    0.5871 C   0  0  0  0  0  0  0  0  0  0  0  0
    4.8300   -3.2113   -0.2496 C   0  0  1  0  0  0  0  0  0  0  0  0
    3.8520   -3.3562   -1.4415 C   0  0  0  0  0  0  0  0  0  0  0  0
    4.5563   -2.0947    0.8202 C   0  0  0  0  0  0  0  0  0  0  0  0
    5.9777   -1.5737    1.1992 C   0  0  0  0  0  0  0  0  0  0  0  0
    3.6692   -1.0173    0.1306 C   0  0  0  0  0  0  0  0  0  0  0  0
    3.8615   -2.7779    2.0425 C   0  0  0  0  0  0  0  0  0  0  0  0
    3.4382   -2.1884    3.2435 C   0  0  0  0  0  0  0  0  0  0  0  0
    3.5196   -0.6323    3.4684 C   0  0  1  0  0  0  0  0  0  0  0  0
    4.4478    0.1259    2.7581 O   0  0  0  0  0  0  0  0  0  0  0  0
    2.1053    0.0044    3.4707 C   0  0  2  0  0  0  0  0  0  0  0  0
    2.1422    1.4233    3.3098 O   0  0  0  0  0  0  0  0  0  0  0  0
    1.4479   -0.3890    4.7617 C   0  0  0  0  0  0  0  0  0  0  0  0
    1.2971   -1.8850    4.5155 C   0  0  1  0  0  0  0  0  0  0  0  0
    0.6794   -1.7180    3.1386 C   0  0  0  0  0  0  0  0  0  0  0  0
    1.3453   -0.6262    2.4978 O   0  0  0  0  0  0  0  0  0  0  0  0
    2.6117   -2.7825    4.4842 C   0  0  2  0  0  0  0  0  0  0  0  0
    3.4073   -2.4235    5.7980 C   0  0  0  0  0  0  0  0  0  0  0  0
    2.2681   -4.4009    4.6486 C   0  0  1  0  0  0  0  0  0  0  0  0
    3.3381   -5.1138    5.5408 C   0  0  0  0  0  0  0  0  0  0  0  0
    0.0123   -3.7663    8.5197 H   0  0  0  0  0  0  0  0  0  0  0  0
   -0.5452   -5.1898    7.6609 H   0  0  0  0  0  0  0  0  0  0  0  0
   -1.0075   -3.5729    7.0943 H   0  0  0  0  0  0  0  0  0  0  0  0
    0.0471   -4.0640    4.9649 H   0  0  0  0  0  0  0  0  0  0  0  0
   -0.5290   -5.5246    3.6726 H   0  0  0  0  0  0  0  0  0  0  0  0
    0.2994   -5.5794    1.2734 H   0  0  0  0  0  0  0  0  0  0  0  0
   -0.5271   -6.9666    0.5131 H   0  0  0  0  0  0  0  0  0  0  0  0
    1.2146   -6.6583    0.2612 H   0  0  0  0  0  0  0  0  0  0  0  0
    3.0705   -8.0198    3.7649 H   0  0  0  0  0  0  0  0  0  0  0  0
    2.0488   -7.8010    5.2014 H   0  0  0  0  0  0  0  0  0  0  0  0
    0.6887   -9.5907    4.4788 H   0  0  0  0  0  0  0  0  0  0  0  0
    1.6521   -9.6885    3.0010 H   0  0  0  0  0  0  0  0  0  0  0  0
    1.5062   -4.5984    2.6780 H   0  0  0  0  0  0  0  0  0  0  0  0
    4.3772   -5.3453    3.2508 H   0  0  0  0  0  0  0  0  0  0  0  0
    4.4629   -6.6380    1.5251 H   0  0  0  0  0  0  0  0  0  0  0  0
    2.7745   -4.2007    0.9711 H   0  0  0  0  0  0  0  0  0  0  0  0
    5.7730   -4.5563    1.1284 H   0  0  0  0  0  0  0  0  0  0  0  0
    4.7159   -5.3594   -0.0416 H   0  0  0  0  0  0  0  0  0  0  0  0
    5.7994   -3.0995   -0.7306 H   0  0  0  0  0  0  0  0  0  0  0  0
    2.8107   -3.4793   -1.1391 H   0  0  0  0  0  0  0  0  0  0  0  0
    4.1217   -4.2314   -2.0359 H   0  0  0  0  0  0  0  0  0  0  0  0
    3.9042   -2.5028   -2.1198 H   0  0  0  0  0  0  0  0  0  0  0  0
    6.1428   -0.5650    0.8246 H   0  0  0  0  0  0  0  0  0  0  0  0
    6.7994   -2.1827    0.8308 H   0  0  0  0  0  0  0  0  0  0  0  0
    6.1324   -1.5607    2.2773 H   0  0  0  0  0  0  0  0  0  0  0  0
    4.1195   -0.6641   -0.7941 H   0  0  0  0  0  0  0  0  0  0  0  0
    3.4365   -0.1284    0.6977 H   0  0  0  0  0  0  0  0  0  0  0  0
    2.6946   -1.4375   -0.0985 H   0  0  0  0  0  0  0  0  0  0  0  0
    3.9547   -0.4230    4.4323 H   0  0  0  0  0  0  0  0  0  0  0  0
    3.9474    0.6686    2.1720 H   0  0  0  0  0  0  0  0  0  0  0  0
    1.2626    1.7364    3.3555 H   0  0  0  0  0  0  0  0  0  0  0  0
    1.9761   -0.0657    5.6559 H   0  0  0  0  0  0  0  0  0  0  0  0
    0.4571    0.0842    4.8028 H   0  0  0  0  0  0  0  0  0  0  0  0
    0.5550   -2.1587    5.2539 H   0  0  0  0  0  0  0  0  0  0  0  0
    0.7057   -2.6024    2.5141 H   0  0  0  0  0  0  0  0  0  0  0  0
   -0.3362   -1.4212    3.3488 H   0  0  0  0  0  0  0  0  0  0  0  0
    2.9788   -2.8425    6.7019 H   0  0  0  0  0  0  0  0  0  0  0  0
    3.4604   -1.3803    6.0806 H   0  0  0  0  0  0  0  0  0  0  0  0
    4.4513   -2.7260    5.7186 H   0  0  0  0  0  0  0  0  0  0  0  0
    4.3589   -4.8347    5.2905 H   0  0  0  0  0  0  0  0  0  0  0  0
    3.3172   -6.1918    5.4603 H   0  0  0  0  0  0  0  0  0  0  0  0
    3.2203   -4.9356    6.6096 H   0  0  0  0  0  0  0  0  0  0  0  0
  1  2  1  0
  1 38  1  0
  1 39  1  0
  1 40  1  0
  2  3  1  0
  3 36  1  0
  3  4  1  0
  3 41  1  6
  4  5  1  0
  5 11  1  0
  5  6  1  0
  5 42  1  6
  6  7  2  0
  6  8  1  0
  8 13  1  0
  8  9  2  0
  9 10  1  0
  9 11  1  0
 10 43  1  0
 10 44  1  0
 10 45  1  0
 11 12  1  1
 11 14  1  0
 12 13  1  0
 12 46  1  0
 12 47  1  0
 13 48  1  0
 13 49  1  0
 14 36  1  0
 14 15  1  0
 14 50  1  6
 15 16  1  0
 15 17  1  0
 15 51  1  1
 16 52  1  0
 17 24  1  0
 17 18  1  0
 17 53  1  6
 18 19  1  0
 18 54  1  0
 18 55  1  0
 19 20  1  0
 19 21  1  0
 19 56  1  6
 20 57  1  0
 20 58  1  0
 20 59  1  0
 21 22  1  0
 21 23  1  0
 21 24  1  0
 22 60  1  0
 22 61  1  0
 22 62  1  0
 23 63  1  0
 23 64  1  0
 23 65  1  0
 24 25  2  0
 25 34  1  0
 25 26  1  0
 26 27  1  0
 26 28  1  0
 26 66  1  1
 27 67  1  0
 28 33  1  0
 28 29  1  6
 28 30  1  0
 29 68  1  0
 30 31  1  0
 30 69  1  0
 30 70  1  0
 31 32  1  0
 31 34  1  0
 31 71  1  1
 32 33  1  0
 32 72  1  0
 32 73  1  0
 34 35  1  1
 34 36  1  0
 35 74  1  0
 35 75  1  0
 35 76  1  0
 36 37  1  1
 37 77  1  0
 37 78  1  0
 37 79  1  0
M  END
>  <i_m_ct_stereo_status>  (232) 
1

>  <s_m_source_file>  (232) 
/var/tmp/pbs.5076255.sched01/tmpl83nofxy/76c90atywu.sdf

>  <i_m_source_file_index>  (232) 
37

>  <i_lp_mmshare_version>  (232) 
48012

>  <i_f3d_flags>  (232) 
0

>  <s_epik_input>  (232) 
W0NIM11DMT1DKFtDSDJdW0NIMl0yKUMoPU8pW0NASF0oW0NAXTEyMylPW0NAQEhdKE9bQ0gzXSlbQ0BAXTQoW0NIM10pW0NASF0zW0NAQEhdKFtPSF0pW0NASF01QyhDKFtDSDNdKShbQ0gzXSlbQ0BASF0oW0NIMl01KVtDSDNdKT1DNltDQEBdNChbQ0gzXSlbQ0BIXTdbQ0gyXVtDQEBdKFtPSF0pKFtDQEBIXTZbT0hdKU9bQ0gyXTc=

>  <s_epik_cmdline>  (232) 
J2VwaWtfcHl0aG9uJywgJy1waHQnLCAnMi4wJywgJy1waCcsICc3LjAnLCAnLXRuJywgJzgnLCAnLW1hJywgJzIwMCcsICctaW1hZScsICc8aW5maWxlLm1hZT4nLCAnLW9tYWUnLCAnPG91dGZpbGUubWFlPic=

>  <r_lp_tautomer_probability>  (232) 
1

>  <r_epik_Ionization_Penalty>  (232) 
2.69191e-07

>  <r_epik_Ionization_Penalty_Charging>  (232) 
0

>  <r_epik_Ionization_Penalty_Neutral>  (232) 
2.69191e-07

>  <r_epik_State_Penalty>  (232) 
-0

>  <r_epik_Charging_Adjusted_Penalty>  (232) 
0

>  <i_epik_Tot_Q>  (232) 
0

>  <i_epik_Tot_abs_Q>  (232) 
0

>  <s_epik_Chemistry_Notes>  (232) 
This compound contains an acetal/aminal-like group ( X-CH(R)-Y where X, Y are N, S, or O) that may be acid/base labile, releasing an aldehyde.

>  <s_lp_Force_Field>  (232) 
OPLS3e

>  <r_lp_Energy>  (232) 
202.35

>  <b_lp_Chiralities_Consistent>  (232) 
1

>  <s_lp_Variant>  (232) 
84:0-1

>  <s_i_glide_gridfile>  (232) 
pfpi4k_grid

>  <i_i_glide_lignum>  (232) 
37

>  <i_i_glide_rotatable_bonds>  (232) 
4

>  <r_i_docking_score>  (232) 
-1.60293

>  <r_i_glide_ligand_efficiency>  (232) 
-0.0433224

>  <r_i_glide_ligand_efficiency_sa>  (232) 
-0.14436

>  <r_i_glide_ligand_efficiency_ln>  (232) 
-0.347638

>  <r_i_glide_gscore>  (232) 
-1.60293

>  <r_i_glide_lipo>  (232) 
-0.264189

>  <r_i_glide_hbond>  (232) 
0

>  <r_i_glide_metal>  (232) 
-0

>  <r_i_glide_rewards>  (232) 
0

>  <r_i_glide_evdw>  (232) 
-24.0439

>  <r_i_glide_ecoul>  (232) 
-0.519636

>  <r_i_glide_erotb>  (232) 
0

>  <r_i_glide_esite>  (232) 
-0.0586004

>  <r_i_glide_emodel>  (232) 
-25.6285

>  <r_i_glide_energy>  (232) 
-24.5635

>  <r_i_glide_einternal>  (232) 
1.3994

>  <r_i_glide_intrahb_reward>  (232) 
-0

>  <i_i_glide_confnum>  (232) 
1

>  <i_i_glide_posenum>  (232) 
15

>  <r_i_glide_eff_state_penalty>  (232) 
0

>  <ligand_id>  (232) 
84

>  <original_smiles>  (232) 
COC1OC2C(=O)C3=C(C)C2(CC3)C2C(O)C3CC(C)C(C)(C)C3=C3C(O)C4(O)CC(CO4)C3(C)C12C

>  <smiles>  (232) 
[H]OC1([H])C2=C3C([H])(C([H])([H])C([H])(C([H])([H])[H])C3(C([H])([H])[H])C([H])([H])[H])C([H])(O[H])C3([H])C45C(C([H])([H])[H])=C(C(=O)C4([H])OC([H])(OC([H])([H])[H])C3(C([H])([H])[H])C2(C([H])([H])[H])C2([H])C([H])([H])OC1(O[H])C2([H])[H])C([H])([H])C5([H])[H]

$$$$
85:0:0
     RDKit          3D

 43 46  0  0  1  0  0  0  0  0999 V2000
    4.5627   -3.5139   -3.5583 C   0  0  0  0  0  0  0  0  0  0  0  0
    3.8155   -2.3673   -2.8710 C   0  0  0  0  0  0  0  0  0  0  0  0
    3.8454   -1.1953   -3.8797 C   0  0  0  0  0  0  0  0  0  0  0  0
    2.3510   -2.7879   -2.6083 C   0  0  0  0  0  0  0  0  0  0  0  0
    2.0203   -3.4695   -1.2316 C   0  0  0  0  0  0  0  0  0  0  0  0
    2.6886   -2.8308    0.0299 C   0  0  1  0  0  0  0  0  0  0  0  0
    2.3765   -3.4998    1.2469 O   0  0  0  0  0  0  0  0  0  0  0  0
    4.1909   -2.7237   -0.2001 C   0  0  2  0  0  0  0  0  0  0  0  0
    4.7364   -4.1849    0.0149 C   0  0  1  0  0  0  0  0  0  0  0  0
    5.4483   -4.5878   -1.0903 O   0  0  0  0  0  0  0  0  0  0  0  0
    5.6978   -4.3735    1.2107 C   0  0  1  0  0  0  0  0  0  0  0  0
    6.9339   -3.4456    1.0745 C   0  0  0  0  0  0  0  0  0  0  0  0
    8.1238   -3.6222    0.7847 O   0  0  0  0  0  0  0  0  0  0  0  0
    6.0761   -2.2283    1.5285 C   0  0  2  0  0  0  0  0  0  0  0  0
    5.3880   -3.3539    2.3545 C   0  0  0  0  0  0  0  0  0  0  0  0
    4.8219   -3.4025    3.4398 O   0  0  0  0  0  0  0  0  0  0  0  0
    5.1119   -1.6201    0.4736 C   0  0  2  0  0  0  0  0  0  0  0  0
    4.3813   -0.4399    1.1302 C   0  0  0  0  0  0  0  0  0  0  0  0
    5.6488   -1.3637   -0.9849 C   0  0  1  0  0  0  0  0  0  0  0  0
    6.7896   -2.0223   -1.4659 O   0  0  0  0  0  0  0  0  0  0  0  0
    4.3337   -1.8894   -1.4980 C   0  0  1  0  0  0  0  0  0  0  0  0
    4.3070   -3.5869   -4.6198 H   0  0  0  0  0  0  0  0  0  0  0  0
    4.2535   -4.4719   -3.1491 H   0  0  0  0  0  0  0  0  0  0  0  0
    5.6530   -3.4160   -3.4832 H   0  0  0  0  0  0  0  0  0  0  0  0
    3.2920   -0.3262   -3.5313 H   0  0  0  0  0  0  0  0  0  0  0  0
    3.3961   -1.4882   -4.8279 H   0  0  0  0  0  0  0  0  0  0  0  0
    4.8672   -0.8804   -4.0945 H   0  0  0  0  0  0  0  0  0  0  0  0
    1.8141   -1.8568   -2.6555 H   0  0  0  0  0  0  0  0  0  0  0  0
    1.9643   -3.3993   -3.4245 H   0  0  0  0  0  0  0  0  0  0  0  0
    0.9453   -3.4462   -1.1240 H   0  0  0  0  0  0  0  0  0  0  0  0
    2.2546   -4.5340   -1.2801 H   0  0  0  0  0  0  0  0  0  0  0  0
    2.2755   -1.8446    0.1807 H   0  0  0  0  0  0  0  0  0  0  0  0
    2.6068   -2.9075    1.9439 H   0  0  0  0  0  0  0  0  0  0  0  0
    3.9566   -4.9416    0.0927 H   0  0  0  0  0  0  0  0  0  0  0  0
    4.8392   -4.8854   -1.7569 H   0  0  0  0  0  0  0  0  0  0  0  0
    5.9331   -5.3905    1.5056 H   0  0  0  0  0  0  0  0  0  0  0  0
    6.6159   -1.4752    2.1124 H   0  0  0  0  0  0  0  0  0  0  0  0
    5.0881    0.2850    1.5103 H   0  0  0  0  0  0  0  0  0  0  0  0
    3.7921   -0.7737    1.9763 H   0  0  0  0  0  0  0  0  0  0  0  0
    3.7097    0.1079    0.4766 H   0  0  0  0  0  0  0  0  0  0  0  0
    5.7597   -0.3028   -1.1911 H   0  0  0  0  0  0  0  0  0  0  0  0
    6.5991   -2.9558   -1.4031 H   0  0  0  0  0  0  0  0  0  0  0  0
    3.7191   -1.0129   -1.3496 H   0  0  0  0  0  0  0  0  0  0  0  0
  1  2  1  0
  1 22  1  0
  1 23  1  0
  1 24  1  0
  2 21  1  0
  2  3  1  0
  2  4  1  0
  3 25  1  0
  3 26  1  0
  3 27  1  0
  4  5  1  0
  4 28  1  0
  4 29  1  0
  5  6  1  0
  5 30  1  0
  5 31  1  0
  6  7  1  0
  6  8  1  0
  6 32  1  1
  7 33  1  0
  8 17  1  1
  8 21  1  0
  8  9  1  0
  9 10  1  0
  9 11  1  0
  9 34  1  1
 10 35  1  0
 11 15  1  0
 11 12  1  0
 11 36  1  1
 12 13  2  0
 12 14  1  0
 14 15  1  0
 14 17  1  0
 14 37  1  1
 15 16  2  0
 17 18  1  1
 17 19  1  0
 18 38  1  0
 18 39  1  0
 18 40  1  0
 19 20  1  0
 19 21  1  0
 19 41  1  1
 20 42  1  0
 21 43  1  1
M  END
>  <i_m_ct_stereo_status>  (233) 
1

>  <s_m_source_file>  (233) 
/var/tmp/pbs.5076255.sched01/tmpl83nofxy/76c90atywu.sdf

>  <i_m_source_file_index>  (233) 
38

>  <i_lp_mmshare_version>  (233) 
48012

>  <i_f3d_flags>  (233) 
0

>  <s_epik_input>  (233) 
W09IXVtDQEBIXTFbQ0gyXVtDSDJdQyhbQ0gzXSkoW0NIM10pW0NAQEhdMltDQEhdKFtPSF0pW0NAXShbQ0BAXTEyMykoW0NIM10pW0NAQEhdNEMoPU8pW0NAQEhdKEM0PU8pW0NAQEhdM1tPSF0=

>  <s_epik_cmdline>  (233) 
J2VwaWtfcHl0aG9uJywgJy1waHQnLCAnMi4wJywgJy1waCcsICc3LjAnLCAnLXRuJywgJzgnLCAnLW1hJywgJzIwMCcsICctaW1hZScsICc8aW5maWxlLm1hZT4nLCAnLW9tYWUnLCAnPG91dGZpbGUubWFlPic=

>  <r_epik_Ionization_Penalty>  (233) 
0.0254995

>  <r_epik_Ionization_Penalty_Charging>  (233) 
0

>  <r_epik_Ionization_Penalty_Neutral>  (233) 
0.0254995

>  <r_epik_State_Penalty>  (233) 
0.0196307

>  <r_epik_Charging_Adjusted_Penalty>  (233) 
0.0196307

>  <i_epik_Tot_Q>  (233) 
0

>  <i_epik_Tot_abs_Q>  (233) 
0

>  <s_lp_Force_Field>  (233) 
OPLS3e

>  <r_lp_Energy>  (233) 
78.4081

>  <b_lp_Chiralities_Consistent>  (233) 
1

>  <s_lp_Variant>  (233) 
85:0-1

>  <s_i_glide_gridfile>  (233) 
pfpi4k_grid

>  <i_i_glide_lignum>  (233) 
38

>  <i_i_glide_rotatable_bonds>  (233) 
3

>  <r_i_docking_score>  (233) 
-4.61807

>  <r_i_glide_ligand_efficiency>  (233) 
-0.219908

>  <r_i_glide_ligand_efficiency_sa>  (233) 
-0.60671

>  <r_i_glide_ligand_efficiency_ln>  (233) 
-1.14181

>  <r_i_glide_gscore>  (233) 
-4.61807

>  <r_i_glide_lipo>  (233) 
-0.787495

>  <r_i_glide_hbond>  (233) 
0

>  <r_i_glide_metal>  (233) 
-0

>  <r_i_glide_rewards>  (233) 
-2.04515

>  <r_i_glide_evdw>  (233) 
-13.6325

>  <r_i_glide_ecoul>  (233) 
-7.35867

>  <r_i_glide_erotb>  (233) 
0

>  <r_i_glide_esite>  (233) 
0

>  <r_i_glide_emodel>  (233) 
-28.5231

>  <r_i_glide_energy>  (233) 
-20.9912

>  <r_i_glide_einternal>  (233) 
0.853439

>  <r_i_glide_intrahb_reward>  (233) 
-0.5

>  <i_i_glide_confnum>  (233) 
1

>  <i_i_glide_posenum>  (233) 
38

>  <r_i_glide_eff_state_penalty>  (233) 
0

>  <ligand_id>  (233) 
85

>  <original_smiles>  (233) 
CC1(C)CCC(O)C23C(O)C4C(=O)C(C4=O)C2(C)C(O)C13

>  <smiles>  (233) 
[H]OC1([H])C2([H])C(C([H])([H])[H])(C([H])([H])[H])C([H])([H])C([H])([H])C([H])(O[H])C23C([H])(O[H])C2([H])C(=O)C([H])(C2=O)C13C([H])([H])[H]

$$$$
85:0:1
     RDKit          3D

 43 46  0  0  1  0  0  0  0  0999 V2000
    4.2480   -3.2017   -3.6768 C   0  0  0  0  0  0  0  0  0  0  0  0
    3.5037   -2.2001   -2.7813 C   0  0  0  0  0  0  0  0  0  0  0  0
    3.4273   -0.8864   -3.5977 C   0  0  0  0  0  0  0  0  0  0  0  0
    2.0823   -2.7554   -2.5500 C   0  0  0  0  0  0  0  0  0  0  0  0
    1.8302   -3.6266   -1.2922 C   0  0  0  0  0  0  0  0  0  0  0  0
    2.5441   -3.1894    0.0356 C   0  0  1  0  0  0  0  0  0  0  0  0
    2.2531   -4.0609    1.1303 O   0  0  0  0  0  0  0  0  0  0  0  0
    4.0365   -2.9654   -0.2295 C   0  0  2  0  0  0  0  0  0  0  0  0
    4.6581   -4.4027   -0.2779 C   0  0  1  0  0  0  0  0  0  0  0  0
    5.3714   -4.5244   -1.4650 O   0  0  0  0  0  0  0  0  0  0  0  0
    5.6949   -4.7383    0.8117 C   0  0  1  0  0  0  0  0  0  0  0  0
    6.8759   -3.7352    0.8177 C   0  0  0  0  0  0  0  0  0  0  0  0
    8.0643   -3.7937    0.4956 O   0  0  0  0  0  0  0  0  0  0  0  0
    5.9733   -2.6600    1.4858 C   0  0  2  0  0  0  0  0  0  0  0  0
    5.3914   -3.9620    2.1174 C   0  0  0  0  0  0  0  0  0  0  0  0
    4.9057   -4.2502    3.2087 O   0  0  0  0  0  0  0  0  0  0  0  0
    4.9338   -1.9517    0.5790 C   0  0  2  0  0  0  0  0  0  0  0  0
    4.1717   -0.9386    1.4618 C   0  0  0  0  0  0  0  0  0  0  0  0
    5.3921   -1.4073   -0.8347 C   0  0  1  0  0  0  0  0  0  0  0  0
    6.5414   -1.9013   -1.4723 O   0  0  0  0  0  0  0  0  0  0  0  0
    4.0777   -1.9368   -1.3696 C   0  0  1  0  0  0  0  0  0  0  0  0
    3.9511   -3.1082   -4.7177 H   0  0  0  0  0  0  0  0  0  0  0  0
    3.9855   -4.2333   -3.4329 H   0  0  0  0  0  0  0  0  0  0  0  0
    5.3346   -3.0740   -3.6210 H   0  0  0  0  0  0  0  0  0  0  0  0
    2.8420   -0.1212   -3.0945 H   0  0  0  0  0  0  0  0  0  0  0  0
    2.9477   -1.0392   -4.5673 H   0  0  0  0  0  0  0  0  0  0  0  0
    4.4194   -0.4708   -3.7818 H   0  0  0  0  0  0  0  0  0  0  0  0
    1.4894   -1.8787   -2.4390 H   0  0  0  0  0  0  0  0  0  0  0  0
    1.6734   -3.2141   -3.4408 H   0  0  0  0  0  0  0  0  0  0  0  0
    0.7585   -3.6726   -1.1461 H   0  0  0  0  0  0  0  0  0  0  0  0
    2.0879   -4.6494   -1.5216 H   0  0  0  0  0  0  0  0  0  0  0  0
    2.1150   -2.2520    0.3704 H   0  0  0  0  0  0  0  0  0  0  0  0
    2.8062   -4.8418    1.0588 H   0  0  0  0  0  0  0  0  0  0  0  0
    3.9227   -5.1988   -0.3227 H   0  0  0  0  0  0  0  0  0  0  0  0
    4.7496   -4.8388   -2.1411 H   0  0  0  0  0  0  0  0  0  0  0  0
    5.9851   -5.7893    0.9244 H   0  0  0  0  0  0  0  0  0  0  0  0
    6.4966   -2.0021    2.1834 H   0  0  0  0  0  0  0  0  0  0  0  0
    4.8549   -0.2436    1.9489 H   0  0  0  0  0  0  0  0  0  0  0  0
    3.6479   -1.4618    2.2600 H   0  0  0  0  0  0  0  0  0  0  0  0
    3.4324   -0.3438    0.9336 H   0  0  0  0  0  0  0  0  0  0  0  0
    5.4177   -0.3214   -0.8263 H   0  0  0  0  0  0  0  0  0  0  0  0
    6.3695   -2.8306   -1.6166 H   0  0  0  0  0  0  0  0  0  0  0  0
    3.4378   -1.1251   -1.0418 H   0  0  0  0  0  0  0  0  0  0  0  0
  1  2  1  0
  1 22  1  0
  1 23  1  0
  1 24  1  0
  2 21  1  0
  2  3  1  0
  2  4  1  0
  3 25  1  0
  3 26  1  0
  3 27  1  0
  4  5  1  0
  4 28  1  0
  4 29  1  0
  5  6  1  0
  5 30  1  0
  5 31  1  0
  6  7  1  0
  6  8  1  0
  6 32  1  1
  7 33  1  0
  8 17  1  1
  8 21  1  0
  8  9  1  0
  9 10  1  0
  9 11  1  0
  9 34  1  6
 10 35  1  0
 11 15  1  0
 11 12  1  0
 11 36  1  1
 12 13  2  0
 12 14  1  0
 14 15  1  0
 14 17  1  0
 14 37  1  1
 15 16  2  0
 17 18  1  1
 17 19  1  0
 18 38  1  0
 18 39  1  0
 18 40  1  0
 19 20  1  0
 19 21  1  0
 19 41  1  1
 20 42  1  0
 21 43  1  1
M  END
>  <i_m_ct_stereo_status>  (234) 
1

>  <s_m_source_file>  (234) 
/var/tmp/pbs.5076255.sched01/tmpl83nofxy/76c90atywu.sdf

>  <i_m_source_file_index>  (234) 
38

>  <i_lp_mmshare_version>  (234) 
48012

>  <i_f3d_flags>  (234) 
0

>  <s_epik_input>  (234) 
W09IXVtDQEBIXTFbQ0gyXVtDSDJdQyhbQ0gzXSkoW0NIM10pW0NAQEhdMltDQEhdKFtPSF0pW0NAXShbQ0BAXTEyMykoW0NIM10pW0NAQEhdNEMoPU8pW0NAQEhdKEM0PU8pW0NAQEhdM1tPSF0=

>  <s_epik_cmdline>  (234) 
J2VwaWtfcHl0aG9uJywgJy1waHQnLCAnMi4wJywgJy1waCcsICc3LjAnLCAnLXRuJywgJzgnLCAnLW1hJywgJzIwMCcsICctaW1hZScsICc8aW5maWxlLm1hZT4nLCAnLW9tYWUnLCAnPG91dGZpbGUubWFlPic=

>  <r_epik_Ionization_Penalty>  (234) 
0.0254995

>  <r_epik_Ionization_Penalty_Charging>  (234) 
0

>  <r_epik_Ionization_Penalty_Neutral>  (234) 
0.0254995

>  <r_epik_State_Penalty>  (234) 
0.0196307

>  <r_epik_Charging_Adjusted_Penalty>  (234) 
0.0196307

>  <i_epik_Tot_Q>  (234) 
0

>  <i_epik_Tot_abs_Q>  (234) 
0

>  <s_lp_Force_Field>  (234) 
OPLS3e

>  <r_lp_Energy>  (234) 
78.4081

>  <b_lp_Chiralities_Consistent>  (234) 
1

>  <s_lp_Variant>  (234) 
85:0-1

>  <s_i_glide_gridfile>  (234) 
pfpi4k_grid

>  <i_i_glide_lignum>  (234) 
38

>  <i_i_glide_rotatable_bonds>  (234) 
3

>  <r_i_docking_score>  (234) 
-4.40943

>  <r_i_glide_ligand_efficiency>  (234) 
-0.209973

>  <r_i_glide_ligand_efficiency_sa>  (234) 
-0.5793

>  <r_i_glide_ligand_efficiency_ln>  (234) 
-1.09022

>  <r_i_glide_gscore>  (234) 
-4.40943

>  <r_i_glide_lipo>  (234) 
-0.680297

>  <r_i_glide_hbond>  (234) 
0

>  <r_i_glide_metal>  (234) 
-0

>  <r_i_glide_rewards>  (234) 
-2.08606

>  <r_i_glide_evdw>  (234) 
-10.7216

>  <r_i_glide_ecoul>  (234) 
-7.38

>  <r_i_glide_erotb>  (234) 
0

>  <r_i_glide_esite>  (234) 
0

>  <r_i_glide_emodel>  (234) 
-25.8412

>  <r_i_glide_energy>  (234) 
-18.1016

>  <r_i_glide_einternal>  (234) 
0.904752

>  <r_i_glide_intrahb_reward>  (234) 
-0.5

>  <i_i_glide_confnum>  (234) 
1

>  <i_i_glide_posenum>  (234) 
1

>  <r_i_glide_eff_state_penalty>  (234) 
0

>  <ligand_id>  (234) 
85

>  <original_smiles>  (234) 
CC1(C)CCC(O)C23C(O)C4C(=O)C(C4=O)C2(C)C(O)C13

>  <smiles>  (234) 
[H]OC1([H])C2([H])C(C([H])([H])[H])(C([H])([H])[H])C([H])([H])C([H])([H])C([H])(O[H])C23C([H])(O[H])C2([H])C(=O)C([H])(C2=O)C13C([H])([H])[H]

$$$$
85:0:2
     RDKit          3D

 43 46  0  0  1  0  0  0  0  0999 V2000
    4.4673   -1.7397   -3.6140 C   0  0  0  0  0  0  0  0  0  0  0  0
    3.3420   -1.3790   -2.6610 C   0  0  0  0  0  0  0  0  0  0  0  0
    2.8231   -0.0407   -3.2098 C   0  0  0  0  0  0  0  0  0  0  0  0
    2.2293   -2.4190   -2.8019 C   0  0  0  0  0  0  0  0  0  0  0  0
    2.2269   -3.5922   -1.8257 C   0  0  0  0  0  0  0  0  0  0  0  0
    2.5898   -3.3242   -0.3491 C   0  0  1  0  0  0  0  0  0  0  0  0
    2.5879   -4.5141    0.4110 O   0  0  0  0  0  0  0  0  0  0  0  0
    3.9272   -2.5906   -0.3069 C   0  0  2  0  0  0  0  0  0  0  0  0
    5.0997   -3.6141   -0.6523 C   0  0  1  0  0  0  0  0  0  0  0  0
    5.9386   -3.2304   -1.7250 O   0  0  0  0  0  0  0  0  0  0  0  0
    6.0649   -3.8783    0.5212 C   0  0  1  0  0  0  0  0  0  0  0  0
    6.7670   -2.5659    0.9184 C   0  0  0  0  0  0  0  0  0  0  0  0
    7.8354   -2.0493    0.6239 O   0  0  0  0  0  0  0  0  0  0  0  0
    5.5002   -2.1186    1.7208 C   0  0  2  0  0  0  0  0  0  0  0  0
    5.4245   -3.6433    1.9185 C   0  0  0  0  0  0  0  0  0  0  0  0
    5.0320   -4.3703    2.8231 O   0  0  0  0  0  0  0  0  0  0  0  0
    4.2877   -1.6143    0.8960 C   0  0  2  0  0  0  0  0  0  0  0  0
    3.1715   -1.1997    1.8560 C   0  0  0  0  0  0  0  0  0  0  0  0
    4.5483   -0.5665   -0.2001 C   0  0  1  0  0  0  0  0  0  0  0  0
    5.7929   -0.4896   -0.7101 O   0  0  0  0  0  0  0  0  0  0  0  0
    3.6356   -1.3123   -1.1198 C   0  0  1  0  0  0  0  0  0  0  0  0
    4.2379   -1.4116   -4.6336 H   0  0  0  0  0  0  0  0  0  0  0  0
    4.5911   -2.8172   -3.6580 H   0  0  0  0  0  0  0  0  0  0  0  0
    5.3742   -1.2637   -3.2461 H   0  0  0  0  0  0  0  0  0  0  0  0
    1.8860    0.1845   -2.7093 H   0  0  0  0  0  0  0  0  0  0  0  0
    2.5271   -0.0308   -4.2574 H   0  0  0  0  0  0  0  0  0  0  0  0
    3.5737    0.7495   -3.1201 H   0  0  0  0  0  0  0  0  0  0  0  0
    1.4052   -1.9052   -2.4632 H   0  0  0  0  0  0  0  0  0  0  0  0
    2.0393   -2.6989   -3.8445 H   0  0  0  0  0  0  0  0  0  0  0  0
    1.2615   -4.0710   -1.8820 H   0  0  0  0  0  0  0  0  0  0  0  0
    2.9871   -4.2537   -2.2577 H   0  0  0  0  0  0  0  0  0  0  0  0
    1.8424   -2.6945    0.0834 H   0  0  0  0  0  0  0  0  0  0  0  0
    3.1700   -5.1367    0.0081 H   0  0  0  0  0  0  0  0  0  0  0  0
    4.6923   -4.5669   -0.9755 H   0  0  0  0  0  0  0  0  0  0  0  0
    6.4910   -3.9529   -1.9769 H   0  0  0  0  0  0  0  0  0  0  0  0
    6.7470   -4.7204    0.4377 H   0  0  0  0  0  0  0  0  0  0  0  0
    5.7205   -1.5383    2.6162 H   0  0  0  0  0  0  0  0  0  0  0  0
    3.5306   -0.4651    2.5848 H   0  0  0  0  0  0  0  0  0  0  0  0
    2.8384   -2.0790    2.4088 H   0  0  0  0  0  0  0  0  0  0  0  0
    2.3058   -0.7543    1.3556 H   0  0  0  0  0  0  0  0  0  0  0  0
    4.2002    0.4170    0.0709 H   0  0  0  0  0  0  0  0  0  0  0  0
    5.8014    0.3806   -1.0719 H   0  0  0  0  0  0  0  0  0  0  0  0
    2.7111   -0.8675   -0.7457 H   0  0  0  0  0  0  0  0  0  0  0  0
  1  2  1  0
  1 22  1  0
  1 23  1  0
  1 24  1  0
  2 21  1  0
  2  3  1  0
  2  4  1  0
  3 25  1  0
  3 26  1  0
  3 27  1  0
  4  5  1  0
  4 28  1  0
  4 29  1  0
  5  6  1  0
  5 30  1  0
  5 31  1  0
  6  7  1  0
  6  8  1  0
  6 32  1  1
  7 33  1  0
  8 17  1  1
  8 21  1  0
  8  9  1  0
  9 10  1  0
  9 11  1  0
  9 34  1  6
 10 35  1  0
 11 15  1  0
 11 12  1  0
 11 36  1  1
 12 13  2  0
 12 14  1  0
 14 15  1  0
 14 17  1  0
 14 37  1  1
 15 16  2  0
 17 18  1  1
 17 19  1  0
 18 38  1  0
 18 39  1  0
 18 40  1  0
 19 20  1  0
 19 21  1  0
 19 41  1  1
 20 42  1  0
 21 43  1  1
M  END
>  <i_m_ct_stereo_status>  (235) 
1

>  <s_m_source_file>  (235) 
/var/tmp/pbs.5076255.sched01/tmpl83nofxy/76c90atywu.sdf

>  <i_m_source_file_index>  (235) 
38

>  <i_lp_mmshare_version>  (235) 
48012

>  <i_f3d_flags>  (235) 
0

>  <s_epik_input>  (235) 
W09IXVtDQEBIXTFbQ0gyXVtDSDJdQyhbQ0gzXSkoW0NIM10pW0NAQEhdMltDQEhdKFtPSF0pW0NAXShbQ0BAXTEyMykoW0NIM10pW0NAQEhdNEMoPU8pW0NAQEhdKEM0PU8pW0NAQEhdM1tPSF0=

>  <s_epik_cmdline>  (235) 
J2VwaWtfcHl0aG9uJywgJy1waHQnLCAnMi4wJywgJy1waCcsICc3LjAnLCAnLXRuJywgJzgnLCAnLW1hJywgJzIwMCcsICctaW1hZScsICc8aW5maWxlLm1hZT4nLCAnLW9tYWUnLCAnPG91dGZpbGUubWFlPic=

>  <r_epik_Ionization_Penalty>  (235) 
0.0254995

>  <r_epik_Ionization_Penalty_Charging>  (235) 
0

>  <r_epik_Ionization_Penalty_Neutral>  (235) 
0.0254995

>  <r_epik_State_Penalty>  (235) 
0.0196307

>  <r_epik_Charging_Adjusted_Penalty>  (235) 
0.0196307

>  <i_epik_Tot_Q>  (235) 
0

>  <i_epik_Tot_abs_Q>  (235) 
0

>  <s_lp_Force_Field>  (235) 
OPLS3e

>  <r_lp_Energy>  (235) 
78.4081

>  <b_lp_Chiralities_Consistent>  (235) 
1

>  <s_lp_Variant>  (235) 
85:0-1

>  <s_i_glide_gridfile>  (235) 
pfpi4k_grid

>  <i_i_glide_lignum>  (235) 
38

>  <i_i_glide_rotatable_bonds>  (235) 
3

>  <r_i_docking_score>  (235) 
-3.00248

>  <r_i_glide_ligand_efficiency>  (235) 
-0.142975

>  <r_i_glide_ligand_efficiency_sa>  (235) 
-0.394458

>  <r_i_glide_ligand_efficiency_ln>  (235) 
-0.742357

>  <r_i_glide_gscore>  (235) 
-3.00248

>  <r_i_glide_lipo>  (235) 
-0.464161

>  <r_i_glide_hbond>  (235) 
0

>  <r_i_glide_metal>  (235) 
-0

>  <r_i_glide_rewards>  (235) 
-1.55807

>  <r_i_glide_evdw>  (235) 
3.42478

>  <r_i_glide_ecoul>  (235) 
-7.67655

>  <r_i_glide_erotb>  (235) 
0

>  <r_i_glide_esite>  (235) 
0

>  <r_i_glide_emodel>  (235) 
-4.65167

>  <r_i_glide_energy>  (235) 
-4.25177

>  <r_i_glide_einternal>  (235) 
1.80546

>  <r_i_glide_intrahb_reward>  (235) 
-0

>  <i_i_glide_confnum>  (235) 
2

>  <i_i_glide_posenum>  (235) 
17

>  <r_i_glide_eff_state_penalty>  (235) 
0

>  <ligand_id>  (235) 
85

>  <original_smiles>  (235) 
CC1(C)CCC(O)C23C(O)C4C(=O)C(C4=O)C2(C)C(O)C13

>  <smiles>  (235) 
[H]OC1([H])C2([H])C(C([H])([H])[H])(C([H])([H])[H])C([H])([H])C([H])([H])C([H])(O[H])C23C([H])(O[H])C2([H])C(=O)C([H])(C2=O)C13C([H])([H])[H]

$$$$
85:1:0
     RDKit          3D

 42 45  0  0  1  0  0  0  0  0999 V2000
    4.6276   -3.3954   -3.5185 C   0  0  0  0  0  0  0  0  0  0  0  0
    3.8456   -2.2879   -2.7816 C   0  0  0  0  0  0  0  0  0  0  0  0
    3.8627   -1.0791   -3.7454 C   0  0  0  0  0  0  0  0  0  0  0  0
    2.3891   -2.7483   -2.5559 C   0  0  0  0  0  0  0  0  0  0  0  0
    2.0618   -3.4872   -1.2187 C   0  0  0  0  0  0  0  0  0  0  0  0
    2.6940   -2.8855    0.0725 C   0  0  1  0  0  0  0  0  0  0  0  0
    2.3581   -3.6209    1.2392 O   0  0  0  0  0  0  0  0  0  0  0  0
    4.1949   -2.7559   -0.1260 C   0  0  2  0  0  0  0  0  0  0  0  0
    4.7772   -4.2051    0.0582 C   0  0  1  0  0  0  0  0  0  0  0  0
    5.4692   -4.5134   -1.0918 O   0  0  0  0  0  0  0  0  0  0  0  0
    5.7138   -4.3172    1.2607 C   0  0  0  0  0  0  0  0  0  0  0  0
    6.8586   -3.6105    1.2608 C   0  0  0  0  0  0  0  0  0  0  0  0
    7.8414   -3.5593    0.3078 O   0  0  0  0  0  0  0  0  0  0  0  0
    6.0948   -2.3213    1.6405 C   0  0  2  0  0  0  0  0  0  0  0  0
    5.3473   -3.4406    2.3590 C   0  0  0  0  0  0  0  0  0  0  0  0
    4.6101   -3.6141    3.3353 O   0  0  0  0  0  0  0  0  0  0  0  0
    5.1198   -1.6769    0.5876 C   0  0  2  0  0  0  0  0  0  0  0  0
    4.3641   -0.5332    1.2824 C   0  0  0  0  0  0  0  0  0  0  0  0
    5.6364   -1.3433   -0.8681 C   0  0  1  0  0  0  0  0  0  0  0  0
    6.7448   -1.9554   -1.4676 O   0  0  0  0  0  0  0  0  0  0  0  0
    4.3437   -1.8743   -1.3841 C   0  0  1  0  0  0  0  0  0  0  0  0
    4.4036   -3.4184   -4.5865 H   0  0  0  0  0  0  0  0  0  0  0  0
    4.3187   -4.3726   -3.1648 H   0  0  0  0  0  0  0  0  0  0  0  0
    5.7091   -3.2908   -3.4013 H   0  0  0  0  0  0  0  0  0  0  0  0
    3.2902   -0.2379   -3.3576 H   0  0  0  0  0  0  0  0  0  0  0  0
    3.4261   -1.3373   -4.7127 H   0  0  0  0  0  0  0  0  0  0  0  0
    4.8774   -0.7375   -3.9258 H   0  0  0  0  0  0  0  0  0  0  0  0
    1.8151   -1.8318   -2.5929 H   0  0  0  0  0  0  0  0  0  0  0  0
    2.0277   -3.3378   -3.3941 H   0  0  0  0  0  0  0  0  0  0  0  0
    0.9882   -3.4835   -1.1277 H   0  0  0  0  0  0  0  0  0  0  0  0
    2.3249   -4.5410   -1.2837 H   0  0  0  0  0  0  0  0  0  0  0  0
    2.2845   -1.9034    0.2564 H   0  0  0  0  0  0  0  0  0  0  0  0
    2.6490   -3.1148    1.9799 H   0  0  0  0  0  0  0  0  0  0  0  0
    4.0077   -4.9749    0.1912 H   0  0  0  0  0  0  0  0  0  0  0  0
    4.8692   -4.9766   -1.6691 H   0  0  0  0  0  0  0  0  0  0  0  0
    6.5885   -1.5842    2.2995 H   0  0  0  0  0  0  0  0  0  0  0  0
    5.0506    0.1805    1.7291 H   0  0  0  0  0  0  0  0  0  0  0  0
    3.7725   -0.9269    2.1020 H   0  0  0  0  0  0  0  0  0  0  0  0
    3.6858    0.0271    0.6495 H   0  0  0  0  0  0  0  0  0  0  0  0
    5.7010   -0.2733   -0.9939 H   0  0  0  0  0  0  0  0  0  0  0  0
    6.7984   -2.8310   -1.0737 H   0  0  0  0  0  0  0  0  0  0  0  0
    3.7332   -1.0070   -1.1932 H   0  0  0  0  0  0  0  0  0  0  0  0
  1  2  1  0
  1 22  1  0
  1 23  1  0
  1 24  1  0
  2 21  1  0
  2  3  1  0
  2  4  1  0
  3 25  1  0
  3 26  1  0
  3 27  1  0
  4  5  1  0
  4 28  1  0
  4 29  1  0
  5  6  1  0
  5 30  1  0
  5 31  1  0
  6  7  1  0
  6  8  1  0
  6 32  1  1
  7 33  1  0
  8 17  1  1
  8 21  1  0
  8  9  1  0
  9 10  1  0
  9 11  1  0
  9 34  1  1
 10 35  1  0
 11 15  1  0
 11 12  2  0
 12 13  1  0
 12 14  1  0
 14 15  1  0
 14 17  1  0
 14 36  1  1
 15 16  2  0
 17 18  1  1
 17 19  1  0
 18 37  1  0
 18 38  1  0
 18 39  1  0
 19 20  1  0
 19 21  1  0
 19 40  1  1
 20 41  1  0
 21 42  1  1
M  CHG  1  13  -1
M  END
>  <i_m_ct_stereo_status>  (236) 
1

>  <s_m_source_file>  (236) 
/var/tmp/pbs.5076255.sched01/tmp7yh4k8o6/114t33l0ocj.sdf

>  <i_m_source_file_index>  (236) 
1

>  <i_lp_mmshare_version>  (236) 
48012

>  <i_f3d_flags>  (236) 
0

>  <s_epik_input>  (236) 
W09IXVtDQEBIXTFbQ0gyXVtDSDJdQyhbQ0gzXSkoW0NIM10pW0NAQEhdMltDQEhdKFtPSF0pW0NAXShbQ0BAXTEyMykoW0NIM10pW0NAQEhdNEMoPU8pW0NAQEhdKEM0PU8pW0NAQEhdM1tPSF0=

>  <s_epik_cmdline>  (236) 
J2VwaWtfcHl0aG9uJywgJy1waHQnLCAnMi4wJywgJy1waCcsICc3LjAnLCAnLXRuJywgJzgnLCAnLW1hJywgJzIwMCcsICctaW1hZScsICc8aW5maWxlLm1hZT4nLCAnLW9tYWUnLCAnPG91dGZpbGUubWFlPic=

>  <r_epik_Ionization_Penalty>  (236) 
3.4176e-05

>  <r_epik_Ionization_Penalty_Charging>  (236) 
3.3459e-05

>  <r_epik_Ionization_Penalty_Neutral>  (236) 
7.16952e-07

>  <r_epik_State_Penalty>  (236) 
2.32967

>  <r_epik_Charging_Adjusted_Penalty>  (236) 
2.32971

>  <i_epik_Tot_Q>  (236) 
-1

>  <i_epik_Tot_abs_Q>  (236) 
1

>  <s_lp_Force_Field>  (236) 
OPLS3e

>  <r_lp_Energy>  (236) 
116.844

>  <b_lp_Chiralities_Consistent>  (236) 
1

>  <s_lp_Variant>  (236) 
85:0-2

>  <s_i_glide_gridfile>  (236) 
pfpi4k_grid

>  <i_i_glide_lignum>  (236) 
1

>  <i_i_glide_rotatable_bonds>  (236) 
3

>  <r_i_docking_score>  (236) 
-5.49655

>  <r_i_glide_ligand_efficiency>  (236) 
-0.26174

>  <r_i_glide_ligand_efficiency_sa>  (236) 
-0.722122

>  <r_i_glide_ligand_efficiency_ln>  (236) 
-1.35901

>  <r_i_glide_gscore>  (236) 
-5.49655

>  <r_i_glide_lipo>  (236) 
-0.917562

>  <r_i_glide_hbond>  (236) 
0

>  <r_i_glide_metal>  (236) 
-0

>  <r_i_glide_rewards>  (236) 
-2.95903

>  <r_i_glide_evdw>  (236) 
-13.0361

>  <r_i_glide_ecoul>  (236) 
-6.45432

>  <r_i_glide_erotb>  (236) 
0

>  <r_i_glide_esite>  (236) 
0

>  <r_i_glide_emodel>  (236) 
-39.7177

>  <r_i_glide_energy>  (236) 
-19.4904

>  <r_i_glide_einternal>  (236) 
0.901198

>  <r_i_glide_intrahb_reward>  (236) 
-1.5

>  <i_i_glide_confnum>  (236) 
1

>  <i_i_glide_posenum>  (236) 
31

>  <r_i_glide_eff_state_penalty>  (236) 
0

>  <ligand_id>  (236) 
85

>  <original_smiles>  (236) 
CC1(C)CCC(O)C23C(O)C4C(=O)C(C4=O)C2(C)C(O)C13

>  <smiles>  (236) 
[H]OC1([H])C2=C([O-])C([H])(C2=O)C2(C([H])([H])[H])C([H])(O[H])C3([H])C(C([H])([H])[H])(C([H])([H])[H])C([H])([H])C([H])([H])C([H])(O[H])C132

$$$$
85:1:1
     RDKit          3D

 42 45  0  0  1  0  0  0  0  0999 V2000
    4.5757   -3.4452   -3.5268 C   0  0  0  0  0  0  0  0  0  0  0  0
    3.8589   -2.2935   -2.7979 C   0  0  0  0  0  0  0  0  0  0  0  0
    3.9533   -1.0936   -3.7625 C   0  0  0  0  0  0  0  0  0  0  0  0
    2.3547   -2.6390   -2.5708 C   0  0  0  0  0  0  0  0  0  0  0  0
    2.0065   -3.3828   -1.2358 C   0  0  0  0  0  0  0  0  0  0  0  0
    2.6784   -2.8119    0.0592 C   0  0  1  0  0  0  0  0  0  0  0  0
    2.2655   -3.4630    1.2428 O   0  0  0  0  0  0  0  0  0  0  0  0
    4.1949   -2.7753   -0.1458 C   0  0  2  0  0  0  0  0  0  0  0  0
    4.6876   -4.2531    0.0358 C   0  0  1  0  0  0  0  0  0  0  0  0
    5.4176   -4.6591   -1.0802 O   0  0  0  0  0  0  0  0  0  0  0  0
    5.5812   -4.4294    1.2738 C   0  0  0  0  0  0  0  0  0  0  0  0
    6.7753   -3.8143    1.3047 C   0  0  0  0  0  0  0  0  0  0  0  0
    7.7703   -3.8192    0.3663 O   0  0  0  0  0  0  0  0  0  0  0  0
    6.0906   -2.4485    1.6429 C   0  0  2  0  0  0  0  0  0  0  0  0
    5.2616   -3.5274    2.3584 C   0  0  0  0  0  0  0  0  0  0  0  0
    4.5560   -3.6690    3.3474 O   0  0  0  0  0  0  0  0  0  0  0  0
    5.1787   -1.7569    0.5682 C   0  0  2  0  0  0  0  0  0  0  0  0
    4.5030   -0.5567    1.2619 C   0  0  0  0  0  0  0  0  0  0  0  0
    5.7205   -1.4576   -0.8867 C   0  0  1  0  0  0  0  0  0  0  0  0
    6.7935   -2.1327   -1.4796 O   0  0  0  0  0  0  0  0  0  0  0  0
    4.3884   -1.9073   -1.3990 C   0  0  1  0  0  0  0  0  0  0  0  0
    4.3335   -3.4671   -4.5908 H   0  0  0  0  0  0  0  0  0  0  0  0
    4.2402   -4.4039   -3.1623 H   0  0  0  0  0  0  0  0  0  0  0  0
    5.6616   -3.3902   -3.4206 H   0  0  0  0  0  0  0  0  0  0  0  0
    3.4476   -0.2049   -3.3813 H   0  0  0  0  0  0  0  0  0  0  0  0
    3.5007   -1.3234   -4.7297 H   0  0  0  0  0  0  0  0  0  0  0  0
    4.9951   -0.8376   -3.9447 H   0  0  0  0  0  0  0  0  0  0  0  0
    1.8140   -1.7073   -2.6063 H   0  0  0  0  0  0  0  0  0  0  0  0
    1.9566   -3.2095   -3.4105 H   0  0  0  0  0  0  0  0  0  0  0  0
    0.9287   -3.3171   -1.1481 H   0  0  0  0  0  0  0  0  0  0  0  0
    2.2037   -4.4473   -1.3332 H   0  0  0  0  0  0  0  0  0  0  0  0
    2.3577   -1.8003    0.2374 H   0  0  0  0  0  0  0  0  0  0  0  0
    2.6339   -4.3338    1.2670 H   0  0  0  0  0  0  0  0  0  0  0  0
    3.8754   -4.9574    0.1668 H   0  0  0  0  0  0  0  0  0  0  0  0
    4.7758   -5.0706   -1.6714 H   0  0  0  0  0  0  0  0  0  0  0  0
    6.6158   -1.7554    2.3029 H   0  0  0  0  0  0  0  0  0  0  0  0
    5.2298    0.1220    1.7017 H   0  0  0  0  0  0  0  0  0  0  0  0
    3.8844   -0.9059    2.0851 H   0  0  0  0  0  0  0  0  0  0  0  0
    3.8597    0.0410    0.6277 H   0  0  0  0  0  0  0  0  0  0  0  0
    5.8256   -0.3862   -1.0034 H   0  0  0  0  0  0  0  0  0  0  0  0
    6.7503   -3.0376   -1.1445 H   0  0  0  0  0  0  0  0  0  0  0  0
    3.8344   -1.0004   -1.2060 H   0  0  0  0  0  0  0  0  0  0  0  0
  1  2  1  0
  1 22  1  0
  1 23  1  0
  1 24  1  0
  2 21  1  0
  2  3  1  0
  2  4  1  0
  3 25  1  0
  3 26  1  0
  3 27  1  0
  4  5  1  0
  4 28  1  0
  4 29  1  0
  5  6  1  0
  5 30  1  0
  5 31  1  0
  6  7  1  0
  6  8  1  0
  6 32  1  1
  7 33  1  0
  8 17  1  1
  8 21  1  0
  8  9  1  0
  9 10  1  0
  9 11  1  0
  9 34  1  1
 10 35  1  0
 11 15  1  0
 11 12  2  0
 12 13  1  0
 12 14  1  0
 14 15  1  0
 14 17  1  0
 14 36  1  1
 15 16  2  0
 17 18  1  1
 17 19  1  0
 18 37  1  0
 18 38  1  0
 18 39  1  0
 19 20  1  0
 19 21  1  0
 19 40  1  1
 20 41  1  0
 21 42  1  1
M  CHG  1  13  -1
M  END
>  <i_m_ct_stereo_status>  (237) 
1

>  <s_m_source_file>  (237) 
/var/tmp/pbs.5076255.sched01/tmp7yh4k8o6/114t33l0ocj.sdf

>  <i_m_source_file_index>  (237) 
1

>  <i_lp_mmshare_version>  (237) 
48012

>  <i_f3d_flags>  (237) 
0

>  <s_epik_input>  (237) 
W09IXVtDQEBIXTFbQ0gyXVtDSDJdQyhbQ0gzXSkoW0NIM10pW0NAQEhdMltDQEhdKFtPSF0pW0NAXShbQ0BAXTEyMykoW0NIM10pW0NAQEhdNEMoPU8pW0NAQEhdKEM0PU8pW0NAQEhdM1tPSF0=

>  <s_epik_cmdline>  (237) 
J2VwaWtfcHl0aG9uJywgJy1waHQnLCAnMi4wJywgJy1waCcsICc3LjAnLCAnLXRuJywgJzgnLCAnLW1hJywgJzIwMCcsICctaW1hZScsICc8aW5maWxlLm1hZT4nLCAnLW9tYWUnLCAnPG91dGZpbGUubWFlPic=

>  <r_epik_Ionization_Penalty>  (237) 
3.4176e-05

>  <r_epik_Ionization_Penalty_Charging>  (237) 
3.3459e-05

>  <r_epik_Ionization_Penalty_Neutral>  (237) 
7.16952e-07

>  <r_epik_State_Penalty>  (237) 
2.32967

>  <r_epik_Charging_Adjusted_Penalty>  (237) 
2.32971

>  <i_epik_Tot_Q>  (237) 
-1

>  <i_epik_Tot_abs_Q>  (237) 
1

>  <s_lp_Force_Field>  (237) 
OPLS3e

>  <r_lp_Energy>  (237) 
116.844

>  <b_lp_Chiralities_Consistent>  (237) 
1

>  <s_lp_Variant>  (237) 
85:0-2

>  <s_i_glide_gridfile>  (237) 
pfpi4k_grid

>  <i_i_glide_lignum>  (237) 
1

>  <i_i_glide_rotatable_bonds>  (237) 
3

>  <r_i_docking_score>  (237) 
-4.73777

>  <r_i_glide_ligand_efficiency>  (237) 
-0.225608

>  <r_i_glide_ligand_efficiency_sa>  (237) 
-0.622435

>  <r_i_glide_ligand_efficiency_ln>  (237) 
-1.1714

>  <r_i_glide_gscore>  (237) 
-4.73777

>  <r_i_glide_lipo>  (237) 
-0.888341

>  <r_i_glide_hbond>  (237) 
0

>  <r_i_glide_metal>  (237) 
-0

>  <r_i_glide_rewards>  (237) 
-2.4623

>  <r_i_glide_evdw>  (237) 
-13.0633

>  <r_i_glide_ecoul>  (237) 
-4.89307

>  <r_i_glide_erotb>  (237) 
0

>  <r_i_glide_esite>  (237) 
0

>  <r_i_glide_emodel>  (237) 
-32.8212

>  <r_i_glide_energy>  (237) 
-17.9564

>  <r_i_glide_einternal>  (237) 
0.720129

>  <r_i_glide_intrahb_reward>  (237) 
-1

>  <i_i_glide_confnum>  (237) 
1

>  <i_i_glide_posenum>  (237) 
7

>  <r_i_glide_eff_state_penalty>  (237) 
0

>  <ligand_id>  (237) 
85

>  <original_smiles>  (237) 
CC1(C)CCC(O)C23C(O)C4C(=O)C(C4=O)C2(C)C(O)C13

>  <smiles>  (237) 
[H]OC1([H])C2=C([O-])C([H])(C2=O)C2(C([H])([H])[H])C([H])(O[H])C3([H])C(C([H])([H])[H])(C([H])([H])[H])C([H])([H])C([H])([H])C([H])(O[H])C132

$$$$
85:1:2
     RDKit          3D

 42 45  0  0  1  0  0  0  0  0999 V2000
    4.0047   -2.3926   -4.0060 C   0  0  0  0  0  0  0  0  0  0  0  0
    3.1872   -1.8086   -2.8635 C   0  0  0  0  0  0  0  0  0  0  0  0
    2.8764   -0.3452   -3.2871 C   0  0  0  0  0  0  0  0  0  0  0  0
    1.9186   -2.6711   -2.8030 C   0  0  0  0  0  0  0  0  0  0  0  0
    1.7035   -3.7335   -1.7160 C   0  0  0  0  0  0  0  0  0  0  0  0
    2.4709   -3.5861   -0.3819 C   0  0  1  0  0  0  0  0  0  0  0  0
    2.3199   -4.7699    0.3831 O   0  0  0  0  0  0  0  0  0  0  0  0
    3.9230   -3.1291   -0.6140 C   0  0  2  0  0  0  0  0  0  0  0  0
    4.7960   -4.3498   -1.0691 C   0  0  1  0  0  0  0  0  0  0  0  0
    5.3387   -4.1658   -2.3395 O   0  0  0  0  0  0  0  0  0  0  0  0
    5.8502   -4.7558   -0.0340 C   0  0  0  0  0  0  0  0  0  0  0  0
    6.8833   -3.9581    0.2877 C   0  0  0  0  0  0  0  0  0  0  0  0
    7.7527   -3.3823   -0.5834 O   0  0  0  0  0  0  0  0  0  0  0  0
    5.9517   -3.0392    1.1094 C   0  0  2  0  0  0  0  0  0  0  0  0
    5.4697   -4.4658    1.3376 C   0  0  0  0  0  0  0  0  0  0  0  0
    4.9820   -5.1565    2.2178 O   0  0  0  0  0  0  0  0  0  0  0  0
    4.7551   -2.2606    0.4249 C   0  0  2  0  0  0  0  0  0  0  0  0
    3.9093   -1.6481    1.5602 C   0  0  0  0  0  0  0  0  0  0  0  0
    5.0362   -1.3137   -0.7987 C   0  0  1  0  0  0  0  0  0  0  0  0
    6.1760   -1.5056   -1.5912 O   0  0  0  0  0  0  0  0  0  0  0  0
    3.7765   -1.8388   -1.4305 C   0  0  1  0  0  0  0  0  0  0  0  0
    3.6362   -2.0204   -4.9579 H   0  0  0  0  0  0  0  0  0  0  0  0
    3.8804   -3.4729   -4.0584 H   0  0  0  0  0  0  0  0  0  0  0  0
    5.0473   -2.1328   -3.8971 H   0  0  0  0  0  0  0  0  0  0  0  0
    2.2049    0.0942   -2.5979 H   0  0  0  0  0  0  0  0  0  0  0  0
    2.3691   -0.2737   -4.2508 H   0  0  0  0  0  0  0  0  0  0  0  0
    3.7697    0.2740   -3.3298 H   0  0  0  0  0  0  0  0  0  0  0  0
    1.2771   -2.0225   -2.3265 H   0  0  0  0  0  0  0  0  0  0  0  0
    1.4332   -2.8544   -3.7603 H   0  0  0  0  0  0  0  0  0  0  0  0
    0.6583   -3.9981   -1.5799 H   0  0  0  0  0  0  0  0  0  0  0  0
    2.0102   -4.5790   -2.2107 H   0  0  0  0  0  0  0  0  0  0  0  0
    1.9248   -2.8190    0.1523 H   0  0  0  0  0  0  0  0  0  0  0  0
    2.7626   -5.4716   -0.0634 H   0  0  0  0  0  0  0  0  0  0  0  0
    4.2133   -5.2530   -1.1486 H   0  0  0  0  0  0  0  0  0  0  0  0
    5.5900   -5.0100   -2.6853 H   0  0  0  0  0  0  0  0  0  0  0  0
    6.3687   -2.5588    1.9950 H   0  0  0  0  0  0  0  0  0  0  0  0
    4.5228   -1.0230    2.2075 H   0  0  0  0  0  0  0  0  0  0  0  0
    3.4957   -2.4319    2.1975 H   0  0  0  0  0  0  0  0  0  0  0  0
    3.0697   -1.0402    1.2244 H   0  0  0  0  0  0  0  0  0  0  0  0
    4.9483   -0.2769   -0.4894 H   0  0  0  0  0  0  0  0  0  0  0  0
    6.1775   -2.4080   -1.8473 H   0  0  0  0  0  0  0  0  0  0  0  0
    3.0571   -1.2260   -0.8846 H   0  0  0  0  0  0  0  0  0  0  0  0
  1  2  1  0
  1 22  1  0
  1 23  1  0
  1 24  1  0
  2 21  1  0
  2  3  1  0
  2  4  1  0
  3 25  1  0
  3 26  1  0
  3 27  1  0
  4  5  1  0
  4 28  1  0
  4 29  1  0
  5  6  1  0
  5 30  1  0
  5 31  1  0
  6  7  1  0
  6  8  1  0
  6 32  1  1
  7 33  1  0
  8 17  1  1
  8 21  1  0
  8  9  1  0
  9 10  1  0
  9 11  1  0
  9 34  1  6
 10 35  1  0
 11 15  1  0
 11 12  2  0
 12 13  1  0
 12 14  1  0
 14 15  1  0
 14 17  1  0
 14 36  1  1
 15 16  2  0
 17 18  1  1
 17 19  1  0
 18 37  1  0
 18 38  1  0
 18 39  1  0
 19 20  1  0
 19 21  1  0
 19 40  1  1
 20 41  1  0
 21 42  1  1
M  CHG  1  13  -1
M  END
>  <i_m_ct_stereo_status>  (238) 
1

>  <s_m_source_file>  (238) 
/var/tmp/pbs.5076255.sched01/tmp7yh4k8o6/114t33l0ocj.sdf

>  <i_m_source_file_index>  (238) 
1

>  <i_lp_mmshare_version>  (238) 
48012

>  <i_f3d_flags>  (238) 
0

>  <s_epik_input>  (238) 
W09IXVtDQEBIXTFbQ0gyXVtDSDJdQyhbQ0gzXSkoW0NIM10pW0NAQEhdMltDQEhdKFtPSF0pW0NAXShbQ0BAXTEyMykoW0NIM10pW0NAQEhdNEMoPU8pW0NAQEhdKEM0PU8pW0NAQEhdM1tPSF0=

>  <s_epik_cmdline>  (238) 
J2VwaWtfcHl0aG9uJywgJy1waHQnLCAnMi4wJywgJy1waCcsICc3LjAnLCAnLXRuJywgJzgnLCAnLW1hJywgJzIwMCcsICctaW1hZScsICc8aW5maWxlLm1hZT4nLCAnLW9tYWUnLCAnPG91dGZpbGUubWFlPic=

>  <r_epik_Ionization_Penalty>  (238) 
3.4176e-05

>  <r_epik_Ionization_Penalty_Charging>  (238) 
3.3459e-05

>  <r_epik_Ionization_Penalty_Neutral>  (238) 
7.16952e-07

>  <r_epik_State_Penalty>  (238) 
2.32967

>  <r_epik_Charging_Adjusted_Penalty>  (238) 
2.32971

>  <i_epik_Tot_Q>  (238) 
-1

>  <i_epik_Tot_abs_Q>  (238) 
1

>  <s_lp_Force_Field>  (238) 
OPLS3e

>  <r_lp_Energy>  (238) 
116.844

>  <b_lp_Chiralities_Consistent>  (238) 
1

>  <s_lp_Variant>  (238) 
85:0-2

>  <s_i_glide_gridfile>  (238) 
pfpi4k_grid

>  <i_i_glide_lignum>  (238) 
1

>  <i_i_glide_rotatable_bonds>  (238) 
3

>  <r_i_docking_score>  (238) 
-3.25316

>  <r_i_glide_ligand_efficiency>  (238) 
-0.154912

>  <r_i_glide_ligand_efficiency_sa>  (238) 
-0.427392

>  <r_i_glide_ligand_efficiency_ln>  (238) 
-0.804337

>  <r_i_glide_gscore>  (238) 
-3.25316

>  <r_i_glide_lipo>  (238) 
-0.37025

>  <r_i_glide_hbond>  (238) 
0

>  <r_i_glide_metal>  (238) 
-0

>  <r_i_glide_rewards>  (238) 
-1.98003

>  <r_i_glide_evdw>  (238) 
2.98036

>  <r_i_glide_ecoul>  (238) 
-7.01267

>  <r_i_glide_erotb>  (238) 
0

>  <r_i_glide_esite>  (238) 
0

>  <r_i_glide_emodel>  (238) 
-9.5943

>  <r_i_glide_energy>  (238) 
-4.03231

>  <r_i_glide_einternal>  (238) 
0.621508

>  <r_i_glide_intrahb_reward>  (238) 
-0.5

>  <i_i_glide_confnum>  (238) 
2

>  <i_i_glide_posenum>  (238) 
4

>  <r_i_glide_eff_state_penalty>  (238) 
0

>  <ligand_id>  (238) 
85

>  <original_smiles>  (238) 
CC1(C)CCC(O)C23C(O)C4C(=O)C(C4=O)C2(C)C(O)C13

>  <smiles>  (238) 
[H]OC1([H])C2=C([O-])C([H])(C2=O)C2(C([H])([H])[H])C([H])(O[H])C3([H])C(C([H])([H])[H])(C([H])([H])[H])C([H])([H])C([H])([H])C([H])(O[H])C132

$$$$
85:2:0
     RDKit          3D

 42 45  0  0  1  0  0  0  0  0999 V2000
    4.5515   -3.5382   -3.5387 C   0  0  0  0  0  0  0  0  0  0  0  0
    3.8215   -2.3775   -2.8479 C   0  0  0  0  0  0  0  0  0  0  0  0
    3.8658   -1.2078   -3.8542 C   0  0  0  0  0  0  0  0  0  0  0  0
    2.3481   -2.7781   -2.6012 C   0  0  0  0  0  0  0  0  0  0  0  0
    1.9969   -3.4966   -1.2527 C   0  0  0  0  0  0  0  0  0  0  0  0
    2.6605   -2.9091    0.0264 C   0  0  1  0  0  0  0  0  0  0  0  0
    2.3384   -3.6294    1.1981 O   0  0  0  0  0  0  0  0  0  0  0  0
    4.1560   -2.8081   -0.1981 C   0  0  2  0  0  0  0  0  0  0  0  0
    4.7329   -4.2651   -0.0404 C   0  0  1  0  0  0  0  0  0  0  0  0
    5.5494   -4.4759   -1.1171 O   0  0  0  0  0  0  0  0  0  0  0  0
    5.6647   -4.4382    1.1966 C   0  0  1  0  0  0  0  0  0  0  0  0
    6.8322   -3.4435    1.2417 C   0  0  0  0  0  0  0  0  0  0  0  0
    7.8202   -3.5374    0.3108 O   0  0  0  0  0  0  0  0  0  0  0  0
    5.9984   -2.4229    1.5137 C   0  0  0  0  0  0  0  0  0  0  0  0
    5.2694   -3.4332    2.2688 C   0  0  0  0  0  0  0  0  0  0  0  0
    4.5204   -3.3710    3.2549 O   0  0  0  0  0  0  0  0  0  0  0  0
    5.0742   -1.7303    0.4949 C   0  0  2  0  0  0  0  0  0  0  0  0
    4.4127   -0.5338    1.2265 C   0  0  0  0  0  0  0  0  0  0  0  0
    5.6268   -1.4178   -0.9505 C   0  0  1  0  0  0  0  0  0  0  0  0
    6.7381   -2.0476   -1.5360 O   0  0  0  0  0  0  0  0  0  0  0  0
    4.3110   -1.9434   -1.4568 C   0  0  1  0  0  0  0  0  0  0  0  0
    4.2636   -3.6395   -4.5843 H   0  0  0  0  0  0  0  0  0  0  0  0
    4.2597   -4.4778   -3.0919 H   0  0  0  0  0  0  0  0  0  0  0  0
    5.6363   -3.4297   -3.4809 H   0  0  0  0  0  0  0  0  0  0  0  0
    3.3263   -0.3274   -3.5043 H   0  0  0  0  0  0  0  0  0  0  0  0
    3.4132   -1.4955   -4.8056 H   0  0  0  0  0  0  0  0  0  0  0  0
    4.8947   -0.9242   -4.0532 H   0  0  0  0  0  0  0  0  0  0  0  0
    1.8143   -1.8369   -2.6477 H   0  0  0  0  0  0  0  0  0  0  0  0
    1.9450   -3.3637   -3.4232 H   0  0  0  0  0  0  0  0  0  0  0  0
    0.9209   -3.4659   -1.1558 H   0  0  0  0  0  0  0  0  0  0  0  0
    2.2254   -4.5574   -1.3237 H   0  0  0  0  0  0  0  0  0  0  0  0
    2.2980   -1.9001    0.2176 H   0  0  0  0  0  0  0  0  0  0  0  0
    2.6324   -3.1029    1.9286 H   0  0  0  0  0  0  0  0  0  0  0  0
    3.9598   -5.0488   -0.0398 H   0  0  0  0  0  0  0  0  0  0  0  0
    5.0098   -4.8161   -1.8153 H   0  0  0  0  0  0  0  0  0  0  0  0
    5.8861   -5.4616    1.5023 H   0  0  0  0  0  0  0  0  0  0  0  0
    3.7559    0.0777    0.6023 H   0  0  0  0  0  0  0  0  0  0  0  0
    5.1697    0.1320    1.6318 H   0  0  0  0  0  0  0  0  0  0  0  0
    3.8085   -0.8690    2.0659 H   0  0  0  0  0  0  0  0  0  0  0  0
    5.7148   -0.3391   -1.0854 H   0  0  0  0  0  0  0  0  0  0  0  0
    6.7687   -2.9279   -1.1424 H   0  0  0  0  0  0  0  0  0  0  0  0
    3.7363   -1.0430   -1.2719 H   0  0  0  0  0  0  0  0  0  0  0  0
  1  2  1  0
  1 22  1  0
  1 23  1  0
  1 24  1  0
  2 21  1  0
  2  3  1  0
  2  4  1  0
  3 25  1  0
  3 26  1  0
  3 27  1  0
  4  5  1  0
  4 28  1  0
  4 29  1  0
  5  6  1  0
  5 30  1  0
  5 31  1  0
  6  7  1  0
  6  8  1  0
  6 32  1  1
  7 33  1  0
  8 17  1  1
  8 21  1  0
  8  9  1  0
  9 10  1  0
  9 11  1  0
  9 34  1  1
 10 35  1  0
 11 15  1  0
 11 12  1  0
 11 36  1  1
 12 13  1  0
 12 14  2  0
 14 15  1  0
 14 17  1  0
 15 16  2  0
 17 18  1  1
 17 19  1  0
 18 37  1  0
 18 38  1  0
 18 39  1  0
 19 20  1  0
 19 21  1  0
 19 40  1  1
 20 41  1  0
 21 42  1  1
M  CHG  1  13  -1
M  END
>  <i_m_ct_stereo_status>  (239) 
1

>  <s_m_source_file>  (239) 
/var/tmp/pbs.5076255.sched01/tmp7yh4k8o6/114t33l0ocj.sdf

>  <i_m_source_file_index>  (239) 
2

>  <i_lp_mmshare_version>  (239) 
48012

>  <i_f3d_flags>  (239) 
0

>  <s_epik_input>  (239) 
W09IXVtDQEBIXTFbQ0gyXVtDSDJdQyhbQ0gzXSkoW0NIM10pW0NAQEhdMltDQEhdKFtPSF0pW0NAXShbQ0BAXTEyMykoW0NIM10pW0NAQEhdNEMoPU8pW0NAQEhdKEM0PU8pW0NAQEhdM1tPSF0=

>  <s_epik_cmdline>  (239) 
J2VwaWtfcHl0aG9uJywgJy1waHQnLCAnMi4wJywgJy1waCcsICc3LjAnLCAnLXRuJywgJzgnLCAnLW1hJywgJzIwMCcsICctaW1hZScsICc8aW5maWxlLm1hZT4nLCAnLW9tYWUnLCAnPG91dGZpbGUubWFlPic=

>  <r_epik_Ionization_Penalty>  (239) 
3.95422e-05

>  <r_epik_Ionization_Penalty_Charging>  (239) 
3.85678e-05

>  <r_epik_Ionization_Penalty_Neutral>  (239) 
9.74347e-07

>  <r_epik_State_Penalty>  (239) 
2.57368

>  <r_epik_Charging_Adjusted_Penalty>  (239) 
2.57372

>  <i_epik_Tot_Q>  (239) 
-1

>  <i_epik_Tot_abs_Q>  (239) 
1

>  <s_lp_Force_Field>  (239) 
OPLS3e

>  <r_lp_Energy>  (239) 
111.067

>  <b_lp_Chiralities_Consistent>  (239) 
1

>  <s_lp_Variant>  (239) 
85:0-3

>  <s_i_glide_gridfile>  (239) 
pfpi4k_grid

>  <i_i_glide_lignum>  (239) 
2

>  <i_i_glide_rotatable_bonds>  (239) 
3

>  <r_i_docking_score>  (239) 
-5.2612

>  <r_i_glide_ligand_efficiency>  (239) 
-0.250533

>  <r_i_glide_ligand_efficiency_sa>  (239) 
-0.691203

>  <r_i_glide_ligand_efficiency_ln>  (239) 
-1.30082

>  <r_i_glide_gscore>  (239) 
-5.2612

>  <r_i_glide_lipo>  (239) 
-0.792153

>  <r_i_glide_hbond>  (239) 
0

>  <r_i_glide_metal>  (239) 
-0

>  <r_i_glide_rewards>  (239) 
-2.9643

>  <r_i_glide_evdw>  (239) 
-12.135

>  <r_i_glide_ecoul>  (239) 
-5.98663

>  <r_i_glide_erotb>  (239) 
0

>  <r_i_glide_esite>  (239) 
0

>  <r_i_glide_emodel>  (239) 
-35.3141

>  <r_i_glide_energy>  (239) 
-18.1216

>  <r_i_glide_einternal>  (239) 
0.823554

>  <r_i_glide_intrahb_reward>  (239) 
-1.5

>  <i_i_glide_confnum>  (239) 
2

>  <i_i_glide_posenum>  (239) 
38

>  <r_i_glide_eff_state_penalty>  (239) 
0

>  <ligand_id>  (239) 
85

>  <original_smiles>  (239) 
CC1(C)CCC(O)C23C(O)C4C(=O)C(C4=O)C2(C)C(O)C13

>  <smiles>  (239) 
[H]OC1([H])C2([H])C(C([H])([H])[H])(C([H])([H])[H])C([H])([H])C([H])([H])C([H])(O[H])C23C([H])(O[H])C2([H])C(=O)C(=C2[O-])C13C([H])([H])[H]

$$$$
86:0:0
     RDKit          3D

 66 71  0  0  1  0  0  0  0  0999 V2000
    5.3926   -0.9092    1.1754 C   0  0  0  0  0  0  0  0  0  0  0  0
    5.1748   -2.3320    0.6264 C   0  0  2  0  0  0  0  0  0  0  0  0
    3.8063   -2.5010   -0.0199 C   0  0  0  0  0  0  0  0  0  0  0  0
    3.2217   -3.9484   -0.0965 C   0  0  0  0  0  0  0  0  0  0  0  0
    3.1716   -4.9974    1.1893 C   0  0  2  0  0  0  0  0  0  0  0  0
    2.1251   -5.6780    0.4786 O   0  0  0  0  0  0  0  0  0  0  0  0
    2.7599   -4.6701    2.6385 C   0  0  2  0  0  0  0  0  0  0  0  0
    2.3196   -3.3836    2.0923 O   0  0  0  0  0  0  0  0  0  0  0  0
    3.4681   -5.4318    4.0921 C   0  0  0  0  0  0  0  0  0  0  0  0
    4.6080   -6.3346    4.1106 C   0  0  0  0  0  0  0  0  0  0  0  0
    5.3701   -5.8054    2.9825 C   0  0  1  0  0  0  0  0  0  0  0  0
    5.7748   -4.5229    3.5776 O   0  0  0  0  0  0  0  0  0  0  0  0
    5.0897   -3.3120    3.1956 C   0  0  2  0  0  0  0  0  0  0  0  0
    3.7035   -2.7122    4.0747 C   0  0  0  0  0  0  0  0  0  0  0  0
    2.1296   -3.4648    4.4216 C   0  0  0  0  0  0  0  0  0  0  0  0
    1.4986   -4.6709    3.3077 C   0  0  2  0  0  0  0  0  0  0  0  0
    1.2980   -6.3349    3.1259 C   0  0  1  0  0  0  0  0  0  0  0  0
    0.0436   -6.4770    2.4730 O   0  0  0  0  0  0  0  0  0  0  0  0
    2.3871   -7.4785    2.4446 C   0  0  1  0  0  0  0  0  0  0  0  0
    1.6133   -8.5922    1.7154 C   0  0  0  0  0  0  0  0  0  0  0  0
    3.8308   -7.2623    1.5625 C   0  0  2  0  0  0  0  0  0  0  0  0
    4.8717   -8.4043    1.8090 C   0  0  0  0  0  0  0  0  0  0  0  0
    6.3418   -7.9303    1.8612 C   0  0  0  0  0  0  0  0  0  0  0  0
    6.5862   -6.8290    2.9160 C   0  0  1  0  0  0  0  0  0  0  0  0
    8.0165   -6.2417    2.8309 C   0  0  0  0  0  0  0  0  0  0  0  0
    4.4714   -5.7898    1.6147 C   0  0  1  0  0  0  0  0  0  0  0  0
    5.5280   -4.9107    0.8955 C   0  0  0  0  0  0  0  0  0  0  0  0
    5.5028   -3.4493    1.6178 C   0  0  1  0  0  0  0  0  0  0  0  0
    4.6857   -0.6721    1.9713 H   0  0  0  0  0  0  0  0  0  0  0  0
    5.2529   -0.1667    0.3881 H   0  0  0  0  0  0  0  0  0  0  0  0
    6.4006   -0.7821    1.5722 H   0  0  0  0  0  0  0  0  0  0  0  0
    5.8978   -2.4495   -0.1827 H   0  0  0  0  0  0  0  0  0  0  0  0
    3.0957   -1.8122    0.4455 H   0  0  0  0  0  0  0  0  0  0  0  0
    3.8702   -2.1206   -1.0398 H   0  0  0  0  0  0  0  0  0  0  0  0
    2.2067   -3.7019   -0.4349 H   0  0  0  0  0  0  0  0  0  0  0  0
    3.6416   -4.4457   -0.9701 H   0  0  0  0  0  0  0  0  0  0  0  0
    2.4415   -5.8454   -0.4038 H   0  0  0  0  0  0  0  0  0  0  0  0
    3.0778   -2.9136    1.7657 H   0  0  0  0  0  0  0  0  0  0  0  0
    3.8959   -4.8140    4.8759 H   0  0  0  0  0  0  0  0  0  0  0  0
    2.7934   -5.9099    4.8097 H   0  0  0  0  0  0  0  0  0  0  0  0
    5.1724   -6.2493    5.0427 H   0  0  0  0  0  0  0  0  0  0  0  0
    4.3642   -7.3826    4.0892 H   0  0  0  0  0  0  0  0  0  0  0  0
    5.8061   -2.5604    3.5277 H   0  0  0  0  0  0  0  0  0  0  0  0
    4.0903   -2.4159    5.0471 H   0  0  0  0  0  0  0  0  0  0  0  0
    3.4676   -1.7548    3.6080 H   0  0  0  0  0  0  0  0  0  0  0  0
    2.0982   -3.8259    5.4520 H   0  0  0  0  0  0  0  0  0  0  0  0
    1.4045   -2.6466    4.4402 H   0  0  0  0  0  0  0  0  0  0  0  0
    0.5837   -4.2485    2.8703 H   0  0  0  0  0  0  0  0  0  0  0  0
    1.0388   -6.7375    4.1072 H   0  0  0  0  0  0  0  0  0  0  0  0
   -0.1126   -7.4076    2.3732 H   0  0  0  0  0  0  0  0  0  0  0  0
    2.6602   -8.0502    3.3251 H   0  0  0  0  0  0  0  0  0  0  0  0
    1.1958   -8.2148    0.7840 H   0  0  0  0  0  0  0  0  0  0  0  0
    0.7947   -8.9918    2.3158 H   0  0  0  0  0  0  0  0  0  0  0  0
    2.2621   -9.4351    1.4662 H   0  0  0  0  0  0  0  0  0  0  0  0
    3.6210   -7.4453    0.5074 H   0  0  0  0  0  0  0  0  0  0  0  0
    4.6357   -8.9610    2.7201 H   0  0  0  0  0  0  0  0  0  0  0  0
    4.7779   -9.1565    1.0245 H   0  0  0  0  0  0  0  0  0  0  0  0
    6.9798   -8.7857    2.0779 H   0  0  0  0  0  0  0  0  0  0  0  0
    6.6514   -7.5732    0.8763 H   0  0  0  0  0  0  0  0  0  0  0  0
    6.6430   -7.3731    3.8649 H   0  0  0  0  0  0  0  0  0  0  0  0
    8.2793   -5.8272    1.8598 H   0  0  0  0  0  0  0  0  0  0  0  0
    8.7524   -7.0214    3.0270 H   0  0  0  0  0  0  0  0  0  0  0  0
    8.1655   -5.4645    3.5798 H   0  0  0  0  0  0  0  0  0  0  0  0
    6.5258   -5.3079    0.9450 H   0  0  0  0  0  0  0  0  0  0  0  0
    5.4564   -4.8840   -0.1855 H   0  0  0  0  0  0  0  0  0  0  0  0
    6.5821   -3.2841    1.7074 H   0  0  0  0  0  0  0  0  0  0  0  0
  1  2  1  0
  1 29  1  0
  1 30  1  0
  1 31  1  0
  2 28  1  0
  2  3  1  0
  2 32  1  6
  3  4  1  0
  3 33  1  0
  3 34  1  0
  4  5  1  0
  4 35  1  0
  4 36  1  0
  5 26  1  0
  5  6  1  6
  5  7  1  0
  6 37  1  0
  7 16  1  0
  7  8  1  1
  7  9  1  0
  8 38  1  0
  9 10  1  0
  9 39  1  0
  9 40  1  0
 11 10  1  1
 10 41  1  0
 10 42  1  0
 11 24  1  0
 11 26  1  0
 11 12  1  0
 12 13  1  0
 13 28  1  0
 13 14  1  0
 13 43  1  1
 14 15  1  0
 14 44  1  0
 14 45  1  0
 15 16  1  0
 15 46  1  0
 15 47  1  0
 16 17  1  0
 16 48  1  6
 17 18  1  0
 17 19  1  0
 17 49  1  1
 18 50  1  0
 19 20  1  0
 19 21  1  0
 19 51  1  1
 20 52  1  0
 20 53  1  0
 20 54  1  0
 21 22  1  0
 21 26  1  0
 21 55  1  6
 22 23  1  0
 22 56  1  0
 22 57  1  0
 23 24  1  0
 23 58  1  0
 23 59  1  0
 24 25  1  0
 24 60  1  1
 25 61  1  0
 25 62  1  0
 25 63  1  0
 26 27  1  6
 27 28  1  0
 27 64  1  0
 27 65  1  0
 28 66  1  1
M  END
>  <i_m_ct_stereo_status>  (240) 
1

>  <s_m_source_file>  (240) 
/var/tmp/pbs.5076255.sched01/tmp7yh4k8o6/114t33l0ocj.sdf

>  <i_m_source_file_index>  (240) 
3

>  <i_lp_mmshare_version>  (240) 
48012

>  <i_f3d_flags>  (240) 
0

>  <s_epik_input>  (240) 
W0NIMl0xW0NIMl1bQ0BASF0oW0NIM10pW0NASF0oW0NIMl0yKVtDQEhdKE8zKVtDSDJdW0NIMl1bQ0BASF0oW0NAXShbT0hdKShbQ0BdMShbT0hdKVtDQF0yNFtDQEBdMzU2KVtDSDJdW0NIMl01KVtDQEBIXShbT0hdKVtDQEBIXShbQ0gzXSlbQ0BASF00W0NIMl1bQ0gyXVtDQEhdNltDSDNd

>  <s_epik_cmdline>  (240) 
J2VwaWtfcHl0aG9uJywgJy1waHQnLCAnMi4wJywgJy1waCcsICc3LjAnLCAnLXRuJywgJzgnLCAnLW1hJywgJzIwMCcsICctaW1hZScsICc8aW5maWxlLm1hZT4nLCAnLW9tYWUnLCAnPG91dGZpbGUubWFlPic=

>  <r_lp_tautomer_probability>  (240) 
1

>  <r_epik_Ionization_Penalty>  (240) 
3.56461e-06

>  <r_epik_Ionization_Penalty_Charging>  (240) 
0

>  <r_epik_Ionization_Penalty_Neutral>  (240) 
3.56461e-06

>  <r_epik_State_Penalty>  (240) 
-0

>  <r_epik_Charging_Adjusted_Penalty>  (240) 
0

>  <i_epik_Tot_Q>  (240) 
0

>  <i_epik_Tot_abs_Q>  (240) 
0

>  <s_lp_Force_Field>  (240) 
OPLS3e

>  <r_lp_Energy>  (240) 
561.585

>  <b_lp_Chiralities_Consistent>  (240) 
1

>  <s_lp_Variant>  (240) 
86:0-1

>  <s_i_glide_gridfile>  (240) 
pfpi4k_grid

>  <i_i_glide_lignum>  (240) 
3

>  <i_i_glide_rotatable_bonds>  (240) 
3

>  <r_i_docking_score>  (240) 
-3.30013

>  <r_i_glide_ligand_efficiency>  (240) 
-0.117862

>  <r_i_glide_ligand_efficiency_sa>  (240) 
-0.357898

>  <r_i_glide_ligand_efficiency_ln>  (240) 
-0.761768

>  <r_i_glide_gscore>  (240) 
-3.30013

>  <r_i_glide_lipo>  (240) 
-0.544273

>  <r_i_glide_hbond>  (240) 
0

>  <r_i_glide_metal>  (240) 
-0

>  <r_i_glide_rewards>  (240) 
-0.746208

>  <r_i_glide_evdw>  (240) 
-23.4412

>  <r_i_glide_ecoul>  (240) 
-5.58395

>  <r_i_glide_erotb>  (240) 
0

>  <r_i_glide_esite>  (240) 
0

>  <r_i_glide_emodel>  (240) 
-35.5012

>  <r_i_glide_energy>  (240) 
-29.0252

>  <r_i_glide_einternal>  (240) 
0.550208

>  <r_i_glide_intrahb_reward>  (240) 
-0

>  <i_i_glide_confnum>  (240) 
2

>  <i_i_glide_posenum>  (240) 
39

>  <r_i_glide_eff_state_penalty>  (240) 
0

>  <ligand_id>  (240) 
86

>  <original_smiles>  (240) 
CC1CCC2(O)C3(O)CCC45OC6CCC3C(O)C(C)C(CCC4C)C52CC16

>  <smiles>  (240) 
[H]OC1([H])C([H])(C([H])([H])[H])C2([H])C([H])([H])C([H])([H])C([H])(C([H])([H])[H])C34OC5([H])C([H])([H])C([H])([H])C1([H])C(O[H])(C([H])([H])C3([H])[H])C1(O[H])C([H])([H])C([H])([H])C([H])(C([H])([H])[H])C5([H])C([H])([H])C241

$$$$
86:0:1
     RDKit          3D

 66 71  0  0  1  0  0  0  0  0999 V2000
    4.1421   -0.1777   -3.1195 C   0  0  0  0  0  0  0  0  0  0  0  0
    4.5496   -1.6018   -2.8413 C   0  0  2  0  0  0  0  0  0  0  0  0
    3.3238   -2.4647   -2.7956 C   0  0  0  0  0  0  0  0  0  0  0  0
    3.5084   -3.7364   -1.9608 C   0  0  0  0  0  0  0  0  0  0  0  0
    4.0251   -3.8934   -0.4107 C   0  0  2  0  0  0  0  0  0  0  0  0
    3.3212   -5.1206   -0.3206 O   0  0  0  0  0  0  0  0  0  0  0  0
    3.6646   -2.9865    0.7861 C   0  0  2  0  0  0  0  0  0  0  0  0
    2.6697   -2.4954   -0.0936 O   0  0  0  0  0  0  0  0  0  0  0  0
    4.7906   -2.5183    2.0592 C   0  0  0  0  0  0  0  0  0  0  0  0
    6.1815   -2.8273    2.0601 C   0  0  0  0  0  0  0  0  0  0  0  0
    6.5055   -2.8380    0.6399 C   0  0  1  0  0  0  0  0  0  0  0  0
    6.3713   -1.4022    0.4000 O   0  0  0  0  0  0  0  0  0  0  0  0
    5.1573   -0.9017   -0.2090 C   0  0  2  0  0  0  0  0  0  0  0  0
    3.7673   -0.3857    0.7393 C   0  0  0  0  0  0  0  0  0  0  0  0
    2.7724   -1.2640    1.8905 C   0  0  0  0  0  0  0  0  0  0  0  0
    2.6307   -2.9984    1.7529 C   0  0  2  0  0  0  0  0  0  0  0  0
    3.1849   -4.4356    2.4449 C   0  0  1  0  0  0  0  0  0  0  0  0
    2.0486   -5.2876    2.4085 O   0  0  0  0  0  0  0  0  0  0  0  0
    4.5744   -5.3620    2.0226 C   0  0  1  0  0  0  0  0  0  0  0  0
    4.3118   -6.8735    2.1998 C   0  0  0  0  0  0  0  0  0  0  0  0
    5.6588   -5.2344    0.7033 C   0  0  2  0  0  0  0  0  0  0  0  0
    7.1320   -5.6293    1.0884 C   0  0  0  0  0  0  0  0  0  0  0  0
    8.2199   -4.7936    0.3905 C   0  0  0  0  0  0  0  0  0  0  0  0
    8.0197   -3.2970    0.6331 C   0  0  1  0  0  0  0  0  0  0  0  0
    8.9905   -2.4046   -0.1468 C   0  0  0  0  0  0  0  0  0  0  0  0
    5.5752   -3.8750   -0.1559 C   0  0  1  0  0  0  0  0  0  0  0  0
    6.0542   -3.2592   -1.5048 C   0  0  0  0  0  0  0  0  0  0  0  0
    5.4150   -1.7684   -1.5864 C   0  0  1  0  0  0  0  0  0  0  0  0
    3.4458    0.0789   -2.3474 H   0  0  0  0  0  0  0  0  0  0  0  0
    3.6226   -0.0552   -4.0661 H   0  0  0  0  0  0  0  0  0  0  0  0
    4.9652    0.5157   -3.1004 H   0  0  0  0  0  0  0  0  0  0  0  0
    5.1400   -1.9442   -3.6934 H   0  0  0  0  0  0  0  0  0  0  0  0
    2.4396   -1.9206   -2.4644 H   0  0  0  0  0  0  0  0  0  0  0  0
    3.0836   -2.7696   -3.8128 H   0  0  0  0  0  0  0  0  0  0  0  0
    2.4748   -4.1124   -2.0380 H   0  0  0  0  0  0  0  0  0  0  0  0
    4.1006   -4.3841   -2.5959 H   0  0  0  0  0  0  0  0  0  0  0  0
    3.1133   -5.4210   -1.2243 H   0  0  0  0  0  0  0  0  0  0  0  0
    2.3649   -1.6143    0.1378 H   0  0  0  0  0  0  0  0  0  0  0  0
    4.9535   -1.4692    2.2733 H   0  0  0  0  0  0  0  0  0  0  0  0
    4.5080   -2.6732    3.1000 H   0  0  0  0  0  0  0  0  0  0  0  0
    6.6626   -2.0136    2.5594 H   0  0  0  0  0  0  0  0  0  0  0  0
    6.4208   -3.7148    2.5943 H   0  0  0  0  0  0  0  0  0  0  0  0
    5.5159    0.0771   -0.4957 H   0  0  0  0  0  0  0  0  0  0  0  0
    4.1104    0.5245    1.2559 H   0  0  0  0  0  0  0  0  0  0  0  0
    3.0132   -0.0057    0.0765 H   0  0  0  0  0  0  0  0  0  0  0  0
    3.0022   -0.9473    2.9277 H   0  0  0  0  0  0  0  0  0  0  0  0
    1.7668   -0.8494    1.7537 H   0  0  0  0  0  0  0  0  0  0  0  0
    1.5722   -3.1981    1.5357 H   0  0  0  0  0  0  0  0  0  0  0  0
    3.2549   -4.2618    3.5227 H   0  0  0  0  0  0  0  0  0  0  0  0
    2.2559   -6.0606    2.8961 H   0  0  0  0  0  0  0  0  0  0  0  0
    5.1791   -5.2228    2.9183 H   0  0  0  0  0  0  0  0  0  0  0  0
    3.6847   -7.2618    1.3963 H   0  0  0  0  0  0  0  0  0  0  0  0
    3.8350   -7.0939    3.1540 H   0  0  0  0  0  0  0  0  0  0  0  0
    5.2457   -7.4380    2.1809 H   0  0  0  0  0  0  0  0  0  0  0  0
    5.4280   -6.0359   -0.0020 H   0  0  0  0  0  0  0  0  0  0  0  0
    7.2888   -5.5973    2.1673 H   0  0  0  0  0  0  0  0  0  0  0  0
    7.3061   -6.6781    0.8450 H   0  0  0  0  0  0  0  0  0  0  0  0
    9.1963   -5.0915    0.7836 H   0  0  0  0  0  0  0  0  0  0  0  0
    8.2945   -4.9681   -0.6727 H   0  0  0  0  0  0  0  0  0  0  0  0
    8.4004   -3.2773    1.6356 H   0  0  0  0  0  0  0  0  0  0  0  0
    8.9614   -2.5351   -1.2305 H   0  0  0  0  0  0  0  0  0  0  0  0
   10.0074   -2.6509    0.1333 H   0  0  0  0  0  0  0  0  0  0  0  0
    8.8594   -1.3440    0.0782 H   0  0  0  0  0  0  0  0  0  0  0  0
    7.1196   -3.2156   -1.6374 H   0  0  0  0  0  0  0  0  0  0  0  0
    5.9320   -3.8580   -2.3958 H   0  0  0  0  0  0  0  0  0  0  0  0
    6.2851   -1.2428   -1.9540 H   0  0  0  0  0  0  0  0  0  0  0  0
  1  2  1  0
  1 29  1  0
  1 30  1  0
  1 31  1  0
  2 28  1  0
  2  3  1  0
  2 32  1  6
  3  4  1  0
  3 33  1  0
  3 34  1  0
  4  5  1  0
  4 35  1  0
  4 36  1  0
  5 26  1  0
  5  6  1  1
  5  7  1  0
  6 37  1  0
  7 16  1  0
  7  8  1  6
  7  9  1  0
  8 38  1  0
  9 10  1  0
  9 39  1  0
  9 40  1  0
 11 10  1  1
 10 41  1  0
 10 42  1  0
 11 24  1  0
 11 26  1  0
 11 12  1  0
 12 13  1  0
 13 28  1  0
 13 14  1  0
 13 43  1  6
 14 15  1  0
 14 44  1  0
 14 45  1  0
 15 16  1  0
 15 46  1  0
 15 47  1  0
 16 17  1  0
 16 48  1  6
 17 18  1  0
 17 19  1  0
 17 49  1  1
 18 50  1  0
 19 20  1  0
 19 21  1  0
 19 51  1  1
 20 52  1  0
 20 53  1  0
 20 54  1  0
 21 22  1  0
 21 26  1  0
 21 55  1  6
 22 23  1  0
 22 56  1  0
 22 57  1  0
 23 24  1  0
 23 58  1  0
 23 59  1  0
 24 25  1  0
 24 60  1  1
 25 61  1  0
 25 62  1  0
 25 63  1  0
 26 27  1  6
 27 28  1  0
 27 64  1  0
 27 65  1  0
 28 66  1  6
M  END
>  <i_m_ct_stereo_status>  (241) 
1

>  <s_m_source_file>  (241) 
/var/tmp/pbs.5076255.sched01/tmp7yh4k8o6/114t33l0ocj.sdf

>  <i_m_source_file_index>  (241) 
3

>  <i_lp_mmshare_version>  (241) 
48012

>  <i_f3d_flags>  (241) 
0

>  <s_epik_input>  (241) 
W0NIMl0xW0NIMl1bQ0BASF0oW0NIM10pW0NASF0oW0NIMl0yKVtDQEhdKE8zKVtDSDJdW0NIMl1bQ0BASF0oW0NAXShbT0hdKShbQ0BdMShbT0hdKVtDQF0yNFtDQEBdMzU2KVtDSDJdW0NIMl01KVtDQEBIXShbT0hdKVtDQEBIXShbQ0gzXSlbQ0BASF00W0NIMl1bQ0gyXVtDQEhdNltDSDNd

>  <s_epik_cmdline>  (241) 
J2VwaWtfcHl0aG9uJywgJy1waHQnLCAnMi4wJywgJy1waCcsICc3LjAnLCAnLXRuJywgJzgnLCAnLW1hJywgJzIwMCcsICctaW1hZScsICc8aW5maWxlLm1hZT4nLCAnLW9tYWUnLCAnPG91dGZpbGUubWFlPic=

>  <r_lp_tautomer_probability>  (241) 
1

>  <r_epik_Ionization_Penalty>  (241) 
3.56461e-06

>  <r_epik_Ionization_Penalty_Charging>  (241) 
0

>  <r_epik_Ionization_Penalty_Neutral>  (241) 
3.56461e-06

>  <r_epik_State_Penalty>  (241) 
-0

>  <r_epik_Charging_Adjusted_Penalty>  (241) 
0

>  <i_epik_Tot_Q>  (241) 
0

>  <i_epik_Tot_abs_Q>  (241) 
0

>  <s_lp_Force_Field>  (241) 
OPLS3e

>  <r_lp_Energy>  (241) 
561.585

>  <b_lp_Chiralities_Consistent>  (241) 
1

>  <s_lp_Variant>  (241) 
86:0-1

>  <s_i_glide_gridfile>  (241) 
pfpi4k_grid

>  <i_i_glide_lignum>  (241) 
3

>  <i_i_glide_rotatable_bonds>  (241) 
3

>  <r_i_docking_score>  (241) 
-2.86009

>  <r_i_glide_ligand_efficiency>  (241) 
-0.102146

>  <r_i_glide_ligand_efficiency_sa>  (241) 
-0.310176

>  <r_i_glide_ligand_efficiency_ln>  (241) 
-0.660194

>  <r_i_glide_gscore>  (241) 
-2.86009

>  <r_i_glide_lipo>  (241) 
-1.04486

>  <r_i_glide_hbond>  (241) 
0

>  <r_i_glide_metal>  (241) 
-0

>  <r_i_glide_rewards>  (241) 
-0.746208

>  <r_i_glide_evdw>  (241) 
1.62203

>  <r_i_glide_ecoul>  (241) 
-7.6675

>  <r_i_glide_erotb>  (241) 
0

>  <r_i_glide_esite>  (241) 
0

>  <r_i_glide_emodel>  (241) 
-10.1267

>  <r_i_glide_energy>  (241) 
-6.04547

>  <r_i_glide_einternal>  (241) 
1.90803

>  <r_i_glide_intrahb_reward>  (241) 
-0

>  <i_i_glide_confnum>  (241) 
1

>  <i_i_glide_posenum>  (241) 
38

>  <r_i_glide_eff_state_penalty>  (241) 
0

>  <ligand_id>  (241) 
86

>  <original_smiles>  (241) 
CC1CCC2(O)C3(O)CCC45OC6CCC3C(O)C(C)C(CCC4C)C52CC16

>  <smiles>  (241) 
[H]OC1([H])C([H])(C([H])([H])[H])C2([H])C([H])([H])C([H])([H])C([H])(C([H])([H])[H])C34OC5([H])C([H])([H])C([H])([H])C1([H])C(O[H])(C([H])([H])C3([H])[H])C1(O[H])C([H])([H])C([H])([H])C([H])(C([H])([H])[H])C5([H])C([H])([H])C241

$$$$
86:0:2
     RDKit          3D

 66 71  0  0  1  0  0  0  0  0999 V2000
    5.0459   -0.7087   -0.5243 C   0  0  0  0  0  0  0  0  0  0  0  0
    4.8004   -2.2156   -0.6581 C   0  0  2  0  0  0  0  0  0  0  0  0
    3.3361   -2.5214   -0.8859 C   0  0  0  0  0  0  0  0  0  0  0  0
    2.8150   -3.9222   -0.4509 C   0  0  0  0  0  0  0  0  0  0  0  0
    3.1044   -4.6176    1.0152 C   0  0  2  0  0  0  0  0  0  0  0  0
    1.9683   -5.4563    0.7455 O   0  0  0  0  0  0  0  0  0  0  0  0
    3.0105   -3.9402    2.3924 C   0  0  2  0  0  0  0  0  0  0  0  0
    2.3900   -2.8259    1.6680 O   0  0  0  0  0  0  0  0  0  0  0  0
    4.0865   -4.3178    3.7664 C   0  0  0  0  0  0  0  0  0  0  0  0
    5.2405   -5.1998    3.7280 C   0  0  0  0  0  0  0  0  0  0  0  0
    5.6893   -4.9822    2.3577 C   0  0  1  0  0  0  0  0  0  0  0  0
    6.1510   -3.5998    2.4760 O   0  0  0  0  0  0  0  0  0  0  0  0
    5.3429   -2.5084    2.0124 C   0  0  2  0  0  0  0  0  0  0  0  0
    4.1677   -1.6973    3.0252 C   0  0  0  0  0  0  0  0  0  0  0  0
    2.7551   -2.3270    3.9130 C   0  0  0  0  0  0  0  0  0  0  0  0
    1.9396   -3.7724    3.3165 C   0  0  2  0  0  0  0  0  0  0  0  0
    1.8064   -5.4332    3.5941 C   0  0  1  0  0  0  0  0  0  0  0  0
    0.4537   -5.7554    3.3294 O   0  0  0  0  0  0  0  0  0  0  0  0
    2.7540   -6.7202    2.9654 C   0  0  1  0  0  0  0  0  0  0  0  0
    1.8830   -7.9784    2.7199 C   0  0  0  0  0  0  0  0  0  0  0  0
    3.9413   -6.7372    1.7478 C   0  0  2  0  0  0  0  0  0  0  0  0
    5.0700   -7.7855    2.0235 C   0  0  0  0  0  0  0  0  0  0  0  0
    6.4796   -7.3153    1.6129 C   0  0  0  0  0  0  0  0  0  0  0  0
    6.9128   -5.9905    2.2658 C   0  0  1  0  0  0  0  0  0  0  0  0
    8.2531   -5.4668    1.6862 C   0  0  0  0  0  0  0  0  0  0  0  0
    4.4995   -5.3013    1.2852 C   0  0  1  0  0  0  0  0  0  0  0  0
    5.3214   -4.6409    0.1454 C   0  0  0  0  0  0  0  0  0  0  0  0
    5.3959   -3.0476    0.4682 C   0  0  1  0  0  0  0  0  0  0  0  0
    4.5170   -0.2703    0.3233 H   0  0  0  0  0  0  0  0  0  0  0  0
    4.6847   -0.2109   -1.4261 H   0  0  0  0  0  0  0  0  0  0  0  0
    6.1062   -0.4804   -0.4088 H   0  0  0  0  0  0  0  0  0  0  0  0
    5.3241   -2.5275   -1.5640 H   0  0  0  0  0  0  0  0  0  0  0  0
    2.7359   -1.7246   -0.4411 H   0  0  0  0  0  0  0  0  0  0  0  0
    3.1354   -2.4122   -1.9523 H   0  0  0  0  0  0  0  0  0  0  0  0
    1.7417   -3.7672   -0.6176 H   0  0  0  0  0  0  0  0  0  0  0  0
    3.0759   -4.6425   -1.2116 H   0  0  0  0  0  0  0  0  0  0  0  0
    2.1849   -5.9738   -0.0142 H   0  0  0  0  0  0  0  0  0  0  0  0
    3.0082   -2.4808    1.0368 H   0  0  0  0  0  0  0  0  0  0  0  0
    4.6591   -3.5245    4.2376 H   0  0  0  0  0  0  0  0  0  0  0  0
    3.6258   -4.5936    4.7176 H   0  0  0  0  0  0  0  0  0  0  0  0
    6.0044   -4.8875    4.4453 H   0  0  0  0  0  0  0  0  0  0  0  0
    5.0485   -6.2132    4.0307 H   0  0  0  0  0  0  0  0  0  0  0  0
    6.0810   -1.7043    1.9781 H   0  0  0  0  0  0  0  0  0  0  0  0
    4.7557   -1.1729    3.7754 H   0  0  0  0  0  0  0  0  0  0  0  0
    3.7826   -0.8799    2.4148 H   0  0  0  0  0  0  0  0  0  0  0  0
    2.9816   -2.4174    4.9781 H   0  0  0  0  0  0  0  0  0  0  0  0
    2.0144   -1.5219    3.9011 H   0  0  0  0  0  0  0  0  0  0  0  0
    0.9193   -3.4810    3.0139 H   0  0  0  0  0  0  0  0  0  0  0  0
    1.8084   -5.5664    4.6757 H   0  0  0  0  0  0  0  0  0  0  0  0
    0.2993   -6.6285    3.6632 H   0  0  0  0  0  0  0  0  0  0  0  0
    3.2530   -7.0608    3.8675 H   0  0  0  0  0  0  0  0  0  0  0  0
    1.2461   -7.8639    1.8398 H   0  0  0  0  0  0  0  0  0  0  0  0
    1.2463   -8.2065    3.5761 H   0  0  0  0  0  0  0  0  0  0  0  0
    2.5050   -8.8610    2.5535 H   0  0  0  0  0  0  0  0  0  0  0  0
    3.5070   -7.1876    0.8537 H   0  0  0  0  0  0  0  0  0  0  0  0
    5.0839   -8.0961    3.0689 H   0  0  0  0  0  0  0  0  0  0  0  0
    4.8473   -8.7096    1.4839 H   0  0  0  0  0  0  0  0  0  0  0  0
    7.2057   -8.0963    1.8433 H   0  0  0  0  0  0  0  0  0  0  0  0
    6.5036   -7.1801    0.5377 H   0  0  0  0  0  0  0  0  0  0  0  0
    7.2156   -6.2782    3.2743 H   0  0  0  0  0  0  0  0  0  0  0  0
    8.2622   -5.3272    0.6094 H   0  0  0  0  0  0  0  0  0  0  0  0
    9.0481   -6.1808    1.9032 H   0  0  0  0  0  0  0  0  0  0  0  0
    8.5497   -4.5251    2.1367 H   0  0  0  0  0  0  0  0  0  0  0  0
    6.3236   -5.0153    0.0566 H   0  0  0  0  0  0  0  0  0  0  0  0
    5.0232   -4.8863   -0.8666 H   0  0  0  0  0  0  0  0  0  0  0  0
    6.4549   -2.8703    0.2603 H   0  0  0  0  0  0  0  0  0  0  0  0
  1  2  1  0
  1 29  1  0
  1 30  1  0
  1 31  1  0
  2 28  1  0
  2  3  1  0
  2 32  1  6
  3  4  1  0
  3 33  1  0
  3 34  1  0
  4  5  1  0
  4 35  1  0
  4 36  1  0
  5 26  1  0
  5  6  1  1
  5  7  1  0
  6 37  1  0
  7 16  1  0
  7  8  1  6
  7  9  1  0
  8 38  1  0
  9 10  1  0
  9 39  1  0
  9 40  1  0
 11 10  1  1
 10 41  1  0
 10 42  1  0
 11 24  1  0
 11 26  1  0
 11 12  1  0
 12 13  1  0
 13 28  1  0
 13 14  1  0
 13 43  1  6
 14 15  1  0
 14 44  1  0
 14 45  1  0
 15 16  1  0
 15 46  1  0
 15 47  1  0
 16 17  1  0
 16 48  1  6
 17 18  1  0
 17 19  1  0
 17 49  1  1
 18 50  1  0
 19 20  1  0
 19 21  1  0
 19 51  1  1
 20 52  1  0
 20 53  1  0
 20 54  1  0
 21 22  1  0
 21 26  1  0
 21 55  1  6
 22 23  1  0
 22 56  1  0
 22 57  1  0
 23 24  1  0
 23 58  1  0
 23 59  1  0
 24 25  1  0
 24 60  1  1
 25 61  1  0
 25 62  1  0
 25 63  1  0
 26 27  1  6
 27 28  1  0
 27 64  1  0
 27 65  1  0
 28 66  1  6
M  END
>  <i_m_ct_stereo_status>  (242) 
1

>  <s_m_source_file>  (242) 
/var/tmp/pbs.5076255.sched01/tmp7yh4k8o6/114t33l0ocj.sdf

>  <i_m_source_file_index>  (242) 
3

>  <i_lp_mmshare_version>  (242) 
48012

>  <i_f3d_flags>  (242) 
0

>  <s_epik_input>  (242) 
W0NIMl0xW0NIMl1bQ0BASF0oW0NIM10pW0NASF0oW0NIMl0yKVtDQEhdKE8zKVtDSDJdW0NIMl1bQ0BASF0oW0NAXShbT0hdKShbQ0BdMShbT0hdKVtDQF0yNFtDQEBdMzU2KVtDSDJdW0NIMl01KVtDQEBIXShbT0hdKVtDQEBIXShbQ0gzXSlbQ0BASF00W0NIMl1bQ0gyXVtDQEhdNltDSDNd

>  <s_epik_cmdline>  (242) 
J2VwaWtfcHl0aG9uJywgJy1waHQnLCAnMi4wJywgJy1waCcsICc3LjAnLCAnLXRuJywgJzgnLCAnLW1hJywgJzIwMCcsICctaW1hZScsICc8aW5maWxlLm1hZT4nLCAnLW9tYWUnLCAnPG91dGZpbGUubWFlPic=

>  <r_lp_tautomer_probability>  (242) 
1

>  <r_epik_Ionization_Penalty>  (242) 
3.56461e-06

>  <r_epik_Ionization_Penalty_Charging>  (242) 
0

>  <r_epik_Ionization_Penalty_Neutral>  (242) 
3.56461e-06

>  <r_epik_State_Penalty>  (242) 
-0

>  <r_epik_Charging_Adjusted_Penalty>  (242) 
0

>  <i_epik_Tot_Q>  (242) 
0

>  <i_epik_Tot_abs_Q>  (242) 
0

>  <s_lp_Force_Field>  (242) 
OPLS3e

>  <r_lp_Energy>  (242) 
561.585

>  <b_lp_Chiralities_Consistent>  (242) 
1

>  <s_lp_Variant>  (242) 
86:0-1

>  <s_i_glide_gridfile>  (242) 
pfpi4k_grid

>  <i_i_glide_lignum>  (242) 
3

>  <i_i_glide_rotatable_bonds>  (242) 
3

>  <r_i_docking_score>  (242) 
-2.42271

>  <r_i_glide_ligand_efficiency>  (242) 
-0.0865254

>  <r_i_glide_ligand_efficiency_sa>  (242) 
-0.262742

>  <r_i_glide_ligand_efficiency_ln>  (242) 
-0.559233

>  <r_i_glide_gscore>  (242) 
-2.42271

>  <r_i_glide_lipo>  (242) 
-0.447811

>  <r_i_glide_hbond>  (242) 
0

>  <r_i_glide_metal>  (242) 
-0

>  <r_i_glide_rewards>  (242) 
-0.746208

>  <r_i_glide_evdw>  (242) 
-18.0322

>  <r_i_glide_ecoul>  (242) 
-2.18055

>  <r_i_glide_erotb>  (242) 
0

>  <r_i_glide_esite>  (242) 
0

>  <r_i_glide_emodel>  (242) 
-24.6486

>  <r_i_glide_energy>  (242) 
-20.2128

>  <r_i_glide_einternal>  (242) 
0.436817

>  <r_i_glide_intrahb_reward>  (242) 
-0

>  <i_i_glide_confnum>  (242) 
1

>  <i_i_glide_posenum>  (242) 
27

>  <r_i_glide_eff_state_penalty>  (242) 
0

>  <ligand_id>  (242) 
86

>  <original_smiles>  (242) 
CC1CCC2(O)C3(O)CCC45OC6CCC3C(O)C(C)C(CCC4C)C52CC16

>  <smiles>  (242) 
[H]OC1([H])C([H])(C([H])([H])[H])C2([H])C([H])([H])C([H])([H])C([H])(C([H])([H])[H])C34OC5([H])C([H])([H])C([H])([H])C1([H])C(O[H])(C([H])([H])C3([H])[H])C1(O[H])C([H])([H])C([H])([H])C([H])(C([H])([H])[H])C5([H])C([H])([H])C241

$$$$
86:1:0
     RDKit          3D

 66 71  0  0  1  0  0  0  0  0999 V2000
    3.7550   -0.4095   -3.3858 C   0  0  0  0  0  0  0  0  0  0  0  0
    4.1255   -1.8023   -2.8591 C   0  0  2  0  0  0  0  0  0  0  0  0
    2.8587   -2.4727   -2.3679 C   0  0  0  0  0  0  0  0  0  0  0  0
    3.0702   -3.7119   -1.4829 C   0  0  0  0  0  0  0  0  0  0  0  0
    3.7868   -3.8437   -0.0216 C   0  0  2  0  0  0  0  0  0  0  0  0
    3.1643   -5.1271    0.1973 O   0  0  0  0  0  0  0  0  0  0  0  0
    3.5309   -2.9046    1.1887 C   0  0  2  0  0  0  0  0  0  0  0  0
    2.2535   -2.6437    0.5340 O   0  0  0  0  0  0  0  0  0  0  0  0
    4.7974   -2.2407    2.2026 C   0  0  0  0  0  0  0  0  0  0  0  0
    6.1864   -2.5015    1.9957 C   0  0  0  0  0  0  0  0  0  0  0  0
    6.3518   -2.6412    0.5680 C   0  0  1  0  0  0  0  0  0  0  0  0
    6.0996   -1.2454    0.2166 O   0  0  0  0  0  0  0  0  0  0  0  0
    4.8320   -0.8779   -0.3454 C   0  0  1  0  0  0  0  0  0  0  0  0
    3.5657   -0.3142    0.6884 C   0  0  0  0  0  0  0  0  0  0  0  0
    2.7795   -1.0154    2.1186 C   0  0  0  0  0  0  0  0  0  0  0  0
    2.6457   -2.7837    2.2903 C   0  0  2  0  0  0  0  0  0  0  0  0
    3.3733   -4.1818    2.9460 C   0  0  1  0  0  0  0  0  0  0  0  0
    2.3005   -5.1056    3.0370 O   0  0  0  0  0  0  0  0  0  0  0  0
    4.7301   -5.0982    2.4015 C   0  0  1  0  0  0  0  0  0  0  0  0
    4.5511   -6.5980    2.7264 C   0  0  0  0  0  0  0  0  0  0  0  0
    5.6223   -5.0521    0.9435 C   0  0  2  0  0  0  0  0  0  0  0  0
    7.1418   -5.3700    1.1788 C   0  0  0  0  0  0  0  0  0  0  0  0
    8.1319   -4.5340    0.3434 C   0  0  0  0  0  0  0  0  0  0  0  0
    7.8845   -3.0354    0.4274 C   0  0  1  0  0  0  0  0  0  0  0  0
    8.7258   -2.2622   -0.5437 C   0  0  0  0  0  0  0  0  0  0  0  0
    5.3714   -3.7753   -0.0140 C   0  0  1  0  0  0  0  0  0  0  0  0
    5.7177   -3.2798   -1.4771 C   0  0  0  0  0  0  0  0  0  0  0  0
    5.1396   -1.7582   -1.6966 C   0  0  1  0  0  0  0  0  0  0  0  0
    3.2922    0.1324   -2.5647 H   0  0  0  0  0  0  0  0  0  0  0  0
    3.0331   -0.4672   -4.2143 H   0  0  0  0  0  0  0  0  0  0  0  0
    4.5944    0.1685   -3.7315 H   0  0  0  0  0  0  0  0  0  0  0  0
    4.5818   -2.3772   -3.6874 H   0  0  0  0  0  0  0  0  0  0  0  0
    2.2079   -1.7414   -1.8905 H   0  0  0  0  0  0  0  0  0  0  0  0
    2.3155   -2.8143   -3.2452 H   0  0  0  0  0  0  0  0  0  0  0  0
    2.0783   -4.1717   -1.4461 H   0  0  0  0  0  0  0  0  0  0  0  0
    3.6240   -4.3026   -2.1541 H   0  0  0  0  0  0  0  0  0  0  0  0
    3.3027   -5.6174   -0.5963 H   0  0  0  0  0  0  0  0  0  0  0  0
    2.3032   -1.8217    0.0578 H   0  0  0  0  0  0  0  0  0  0  0  0
    4.9874   -1.1655    2.2421 H   0  0  0  0  0  0  0  0  0  0  0  0
    4.6937   -2.3087    3.2918 H   0  0  0  0  0  0  0  0  0  0  0  0
    6.7535   -1.6800    2.4492 H   0  0  0  0  0  0  0  0  0  0  0  0
    6.5325   -3.3734    2.4940 H   0  0  0  0  0  0  0  0  0  0  0  0
    4.0848   -1.5720   -0.4862 H   0  0  0  0  0  0  0  0  0  0  0  0
    3.9197    0.6521    1.0418 H   0  0  0  0  0  0  0  0  0  0  0  0
    2.7624   -0.1465   -0.0325 H   0  0  0  0  0  0  0  0  0  0  0  0
    3.1639   -0.5678    3.0550 H   0  0  0  0  0  0  0  0  0  0  0  0
    1.7559   -0.6367    2.0944 H   0  0  0  0  0  0  0  0  0  0  0  0
    1.5520   -3.0295    2.3945 H   0  0  0  0  0  0  0  0  0  0  0  0
    3.5646   -3.9574    3.9952 H   0  0  0  0  0  0  0  0  0  0  0  0
    2.2598   -5.5283    2.1967 H   0  0  0  0  0  0  0  0  0  0  0  0
    5.4410   -4.8634    3.1881 H   0  0  0  0  0  0  0  0  0  0  0  0
    3.8435   -7.0768    2.0483 H   0  0  0  0  0  0  0  0  0  0  0  0
    4.1992   -6.7402    3.7485 H   0  0  0  0  0  0  0  0  0  0  0  0
    5.4970   -7.1318    2.6394 H   0  0  0  0  0  0  0  0  0  0  0  0
    5.3533   -5.9223    0.3437 H   0  0  0  0  0  0  0  0  0  0  0  0
    7.4202   -5.2643    2.2257 H   0  0  0  0  0  0  0  0  0  0  0  0
    7.3261   -6.4290    0.9751 H   0  0  0  0  0  0  0  0  0  0  0  0
    9.1517   -4.7783    0.6385 H   0  0  0  0  0  0  0  0  0  0  0  0
    8.1695   -4.7867   -0.6939 H   0  0  0  0  0  0  0  0  0  0  0  0
    8.4092   -2.7375    1.2670 H   0  0  0  0  0  0  0  0  0  0  0  0
    8.5391   -2.4048   -1.6103 H   0  0  0  0  0  0  0  0  0  0  0  0
    9.7934   -2.4827   -0.3230 H   0  0  0  0  0  0  0  0  0  0  0  0
    8.5873   -1.2266   -0.2749 H   0  0  0  0  0  0  0  0  0  0  0  0
    6.7609   -3.3193   -1.7228 H   0  0  0  0  0  0  0  0  0  0  0  0
    5.5402   -3.9660   -2.2996 H   0  0  0  0  0  0  0  0  0  0  0  0
    5.9886   -1.2443   -2.1400 H   0  0  0  0  0  0  0  0  0  0  0  0
  1  2  1  0
  1 29  1  0
  1 30  1  0
  1 31  1  0
  2 28  1  0
  2  3  1  0
  2 32  1  6
  3  4  1  0
  3 33  1  0
  3 34  1  0
  4  5  1  0
  4 35  1  0
  4 36  1  0
  5 26  1  0
  5  6  1  1
  5  7  1  0
  6 37  1  0
  7 16  1  0
  7  8  1  6
  7  9  1  0
  8 38  1  0
  9 10  1  0
  9 39  1  0
  9 40  1  0
 11 10  1  1
 10 41  1  0
 10 42  1  0
 11 24  1  0
 11 26  1  0
 11 12  1  0
 12 13  1  0
 13 28  1  0
 13 14  1  0
 13 43  1  6
 14 15  1  0
 14 44  1  0
 14 45  1  0
 15 16  1  0
 15 46  1  0
 15 47  1  0
 16 17  1  0
 16 48  1  6
 17 18  1  0
 17 19  1  0
 17 49  1  1
 18 50  1  0
 19 20  1  0
 19 21  1  0
 19 51  1  1
 20 52  1  0
 20 53  1  0
 20 54  1  0
 21 22  1  0
 21 26  1  0
 21 55  1  6
 22 23  1  0
 22 56  1  0
 22 57  1  0
 23 24  1  0
 23 58  1  0
 23 59  1  0
 24 25  1  0
 24 60  1  1
 25 61  1  0
 25 62  1  0
 25 63  1  0
 26 27  1  6
 27 28  1  0
 27 64  1  0
 27 65  1  0
 28 66  1  6
M  END
>  <i_m_ct_stereo_status>  (243) 
1

>  <s_m_source_file>  (243) 
/var/tmp/pbs.5076255.sched01/tmp7yh4k8o6/114t33l0ocj.sdf

>  <i_m_source_file_index>  (243) 
4

>  <i_lp_mmshare_version>  (243) 
48012

>  <i_f3d_flags>  (243) 
0

>  <s_epik_input>  (243) 
W0NIMl0xW0NIMl1bQ0BASF0oW0NIM10pW0NASF0oW0NIMl0yKVtDQEhdKE8zKVtDSDJdW0NIMl1bQ0BASF0oW0NAXShbT0hdKShbQ0BdMShbT0hdKVtDQF0yNFtDQEBdMzU2KVtDSDJdW0NIMl01KVtDQEBIXShbT0hdKVtDQEBIXShbQ0gzXSlbQ0BASF00W0NIMl1bQ0gyXVtDQEhdNltDSDNd

>  <s_epik_cmdline>  (243) 
J2VwaWtfcHl0aG9uJywgJy1waHQnLCAnMi4wJywgJy1waCcsICc3LjAnLCAnLXRuJywgJzgnLCAnLW1hJywgJzIwMCcsICctaW1hZScsICc8aW5maWxlLm1hZT4nLCAnLW9tYWUnLCAnPG91dGZpbGUubWFlPic=

>  <r_lp_tautomer_probability>  (243) 
1

>  <r_epik_Ionization_Penalty>  (243) 
3.56461e-06

>  <r_epik_Ionization_Penalty_Charging>  (243) 
0

>  <r_epik_Ionization_Penalty_Neutral>  (243) 
3.56461e-06

>  <r_epik_State_Penalty>  (243) 
-0

>  <r_epik_Charging_Adjusted_Penalty>  (243) 
0

>  <i_epik_Tot_Q>  (243) 
0

>  <i_epik_Tot_abs_Q>  (243) 
0

>  <s_lp_Force_Field>  (243) 
OPLS3e

>  <r_lp_Energy>  (243) 
612.696

>  <b_lp_Chiralities_Consistent>  (243) 
1

>  <s_lp_Variant>  (243) 
86:0-2

>  <s_i_glide_gridfile>  (243) 
pfpi4k_grid

>  <i_i_glide_lignum>  (243) 
4

>  <i_i_glide_rotatable_bonds>  (243) 
3

>  <r_i_docking_score>  (243) 
-3.41292

>  <r_i_glide_ligand_efficiency>  (243) 
-0.12189

>  <r_i_glide_ligand_efficiency_sa>  (243) 
-0.37013

>  <r_i_glide_ligand_efficiency_ln>  (243) 
-0.787802

>  <r_i_glide_gscore>  (243) 
-3.41292

>  <r_i_glide_lipo>  (243) 
-1.19956

>  <r_i_glide_hbond>  (243) 
0

>  <r_i_glide_metal>  (243) 
-0

>  <r_i_glide_rewards>  (243) 
-1.24621

>  <r_i_glide_evdw>  (243) 
-7.37231

>  <r_i_glide_ecoul>  (243) 
-3.99023

>  <r_i_glide_erotb>  (243) 
0

>  <r_i_glide_esite>  (243) 
0

>  <r_i_glide_emodel>  (243) 
-14.3629

>  <r_i_glide_energy>  (243) 
-11.3625

>  <r_i_glide_einternal>  (243) 
0.808404

>  <r_i_glide_intrahb_reward>  (243) 
-0.5

>  <i_i_glide_confnum>  (243) 
1

>  <i_i_glide_posenum>  (243) 
9

>  <r_i_glide_eff_state_penalty>  (243) 
0

>  <ligand_id>  (243) 
86

>  <original_smiles>  (243) 
CC1CCC2(O)C3(O)CCC45OC6CCC3C(O)C(C)C(CCC4C)C52CC16

>  <smiles>  (243) 
[H]OC1([H])C([H])(C([H])([H])[H])C2([H])C([H])([H])C([H])([H])C([H])(C([H])([H])[H])C34OC5([H])C([H])([H])C([H])([H])C1([H])C(O[H])(C([H])([H])C3([H])[H])C1(O[H])C([H])([H])C([H])([H])C([H])(C([H])([H])[H])C5([H])C([H])([H])C241

$$$$
86:1:1
     RDKit          3D

 66 71  0  0  1  0  0  0  0  0999 V2000
    2.9473   -1.9225   -3.3318 C   0  0  0  0  0  0  0  0  0  0  0  0
    3.2986   -3.0920   -2.4048 C   0  0  2  0  0  0  0  0  0  0  0  0
    2.1242   -3.5513   -1.5522 C   0  0  0  0  0  0  0  0  0  0  0  0
    2.4039   -4.4727   -0.3155 C   0  0  0  0  0  0  0  0  0  0  0  0
    3.3685   -4.0959    0.9447 C   0  0  2  0  0  0  0  0  0  0  0  0
    2.7132   -5.1331    1.6997 O   0  0  0  0  0  0  0  0  0  0  0  0
    3.3945   -2.7654    1.7521 C   0  0  2  0  0  0  0  0  0  0  0  0
    2.0928   -2.5473    1.1520 O   0  0  0  0  0  0  0  0  0  0  0  0
    4.8631   -1.9375    2.2693 C   0  0  0  0  0  0  0  0  0  0  0  0
    6.1837   -2.4075    1.9754 C   0  0  0  0  0  0  0  0  0  0  0  0
    6.0724   -3.0508    0.6875 C   0  0  1  0  0  0  0  0  0  0  0  0
    5.8667   -1.8408   -0.0942 O   0  0  0  0  0  0  0  0  0  0  0  0
    4.5425   -1.5308   -0.5507 C   0  0  1  0  0  0  0  0  0  0  0  0
    3.5287   -0.4932    0.4006 C   0  0  0  0  0  0  0  0  0  0  0  0
    2.9275   -0.5778    2.0634 C   0  0  0  0  0  0  0  0  0  0  0  0
    2.7015   -2.1630    2.8378 C   0  0  2  0  0  0  0  0  0  0  0  0
    3.4343   -3.2957    3.8597 C   0  0  1  0  0  0  0  0  0  0  0  0
    2.3331   -3.9839    4.4218 O   0  0  0  0  0  0  0  0  0  0  0  0
    4.6089   -4.5084    3.5029 C   0  0  1  0  0  0  0  0  0  0  0  0
    4.3787   -5.7682    4.3678 C   0  0  0  0  0  0  0  0  0  0  0  0
    5.2419   -5.0740    2.0189 C   0  0  2  0  0  0  0  0  0  0  0  0
    6.7427   -5.4870    2.1253 C   0  0  0  0  0  0  0  0  0  0  0  0
    7.5870   -5.1515    0.8812 C   0  0  0  0  0  0  0  0  0  0  0  0
    7.5236   -3.6539    0.4884 C   0  0  1  0  0  0  0  0  0  0  0  0
    8.2241   -3.3338   -0.8499 C   0  0  0  0  0  0  0  0  0  0  0  0
    4.9224   -4.1823    0.7131 C   0  0  1  0  0  0  0  0  0  0  0  0
    4.9864   -4.2731   -0.8458 C   0  0  0  0  0  0  0  0  0  0  0  0
    4.5175   -2.8519   -1.5151 C   0  0  1  0  0  0  0  0  0  0  0  0
    2.6709   -1.0327   -2.7666 H   0  0  0  0  0  0  0  0  0  0  0  0
    2.1005   -2.1873   -3.9654 H   0  0  0  0  0  0  0  0  0  0  0  0
    3.7797   -1.6808   -3.9885 H   0  0  0  0  0  0  0  0  0  0  0  0
    3.5432   -3.9160   -3.0709 H   0  0  0  0  0  0  0  0  0  0  0  0
    1.6078   -2.6633   -1.2438 H   0  0  0  0  0  0  0  0  0  0  0  0
    1.4085   -4.0495   -2.1997 H   0  0  0  0  0  0  0  0  0  0  0  0
    1.4023   -4.6875    0.0438 H   0  0  0  0  0  0  0  0  0  0  0  0
    2.6312   -5.4697   -0.6786 H   0  0  0  0  0  0  0  0  0  0  0  0
    3.1022   -5.1653    2.5615 H   0  0  0  0  0  0  0  0  0  0  0  0
    2.0999   -1.8009    0.5664 H   0  0  0  0  0  0  0  0  0  0  0  0
    5.1334   -0.9382    1.9238 H   0  0  0  0  0  0  0  0  0  0  0  0
    4.9246   -1.6110    3.3105 H   0  0  0  0  0  0  0  0  0  0  0  0
    6.9105   -1.5831    1.9565 H   0  0  0  0  0  0  0  0  0  0  0  0
    6.5087   -3.0624    2.7458 H   0  0  0  0  0  0  0  0  0  0  0  0
    3.7376   -2.1377   -0.3557 H   0  0  0  0  0  0  0  0  0  0  0  0
    4.0361    0.4732    0.3524 H   0  0  0  0  0  0  0  0  0  0  0  0
    2.6324   -0.3647   -0.2058 H   0  0  0  0  0  0  0  0  0  0  0  0
    3.4796    0.1203    2.7022 H   0  0  0  0  0  0  0  0  0  0  0  0
    1.9509   -0.1012    2.0230 H   0  0  0  0  0  0  0  0  0  0  0  0
    1.6282   -2.2100    3.1181 H   0  0  0  0  0  0  0  0  0  0  0  0
    3.8207   -2.7513    4.7284 H   0  0  0  0  0  0  0  0  0  0  0  0
    1.7664   -3.3426    4.8209 H   0  0  0  0  0  0  0  0  0  0  0  0
    5.4575   -4.1082    4.0474 H   0  0  0  0  0  0  0  0  0  0  0  0
    3.5320   -6.3665    4.0233 H   0  0  0  0  0  0  0  0  0  0  0  0
    4.2037   -5.5087    5.4123 H   0  0  0  0  0  0  0  0  0  0  0  0
    5.2563   -6.4139    4.3499 H   0  0  0  0  0  0  0  0  0  0  0  0
    4.8116   -6.0595    1.8139 H   0  0  0  0  0  0  0  0  0  0  0  0
    7.2106   -5.0788    3.0167 H   0  0  0  0  0  0  0  0  0  0  0  0
    6.8025   -6.5618    2.2815 H   0  0  0  0  0  0  0  0  0  0  0  0
    8.6228   -5.4269    1.0760 H   0  0  0  0  0  0  0  0  0  0  0  0
    7.2760   -5.8066    0.0752 H   0  0  0  0  0  0  0  0  0  0  0  0
    8.2019   -3.1763    1.1920 H   0  0  0  0  0  0  0  0  0  0  0  0
    7.8197   -3.8485   -1.7199 H   0  0  0  0  0  0  0  0  0  0  0  0
    9.2765   -3.6187   -0.7994 H   0  0  0  0  0  0  0  0  0  0  0  0
    8.1998   -2.2624   -1.0602 H   0  0  0  0  0  0  0  0  0  0  0  0
    5.9642   -4.5107   -1.2011 H   0  0  0  0  0  0  0  0  0  0  0  0
    4.5064   -5.1512   -1.2556 H   0  0  0  0  0  0  0  0  0  0  0  0
    5.2923   -2.6512   -2.2491 H   0  0  0  0  0  0  0  0  0  0  0  0
  1  2  1  0
  1 29  1  0
  1 30  1  0
  1 31  1  0
  2 28  1  0
  2  3  1  0
  2 32  1  6
  3  4  1  0
  3 33  1  0
  3 34  1  0
  4  5  1  0
  4 35  1  0
  4 36  1  0
  5 26  1  0
  5  6  1  1
  5  7  1  0
  6 37  1  0
  7 16  1  0
  7  8  1  6
  7  9  1  0
  8 38  1  0
  9 10  1  0
  9 39  1  0
  9 40  1  0
 11 10  1  1
 10 41  1  0
 10 42  1  0
 11 24  1  0
 11 26  1  0
 11 12  1  0
 12 13  1  0
 13 28  1  0
 13 14  1  0
 13 43  1  6
 14 15  1  0
 14 44  1  0
 14 45  1  0
 15 16  1  0
 15 46  1  0
 15 47  1  0
 16 17  1  0
 16 48  1  6
 17 18  1  0
 17 19  1  0
 17 49  1  1
 18 50  1  0
 19 20  1  0
 19 21  1  0
 19 51  1  1
 20 52  1  0
 20 53  1  0
 20 54  1  0
 21 22  1  0
 21 26  1  0
 21 55  1  6
 22 23  1  0
 22 56  1  0
 22 57  1  0
 23 24  1  0
 23 58  1  0
 23 59  1  0
 24 25  1  0
 24 60  1  1
 25 61  1  0
 25 62  1  0
 25 63  1  0
 26 27  1  6
 27 28  1  0
 27 64  1  0
 27 65  1  0
 28 66  1  6
M  END
>  <i_m_ct_stereo_status>  (244) 
1

>  <s_m_source_file>  (244) 
/var/tmp/pbs.5076255.sched01/tmp7yh4k8o6/114t33l0ocj.sdf

>  <i_m_source_file_index>  (244) 
4

>  <i_lp_mmshare_version>  (244) 
48012

>  <i_f3d_flags>  (244) 
0

>  <s_epik_input>  (244) 
W0NIMl0xW0NIMl1bQ0BASF0oW0NIM10pW0NASF0oW0NIMl0yKVtDQEhdKE8zKVtDSDJdW0NIMl1bQ0BASF0oW0NAXShbT0hdKShbQ0BdMShbT0hdKVtDQF0yNFtDQEBdMzU2KVtDSDJdW0NIMl01KVtDQEBIXShbT0hdKVtDQEBIXShbQ0gzXSlbQ0BASF00W0NIMl1bQ0gyXVtDQEhdNltDSDNd

>  <s_epik_cmdline>  (244) 
J2VwaWtfcHl0aG9uJywgJy1waHQnLCAnMi4wJywgJy1waCcsICc3LjAnLCAnLXRuJywgJzgnLCAnLW1hJywgJzIwMCcsICctaW1hZScsICc8aW5maWxlLm1hZT4nLCAnLW9tYWUnLCAnPG91dGZpbGUubWFlPic=

>  <r_lp_tautomer_probability>  (244) 
1

>  <r_epik_Ionization_Penalty>  (244) 
3.56461e-06

>  <r_epik_Ionization_Penalty_Charging>  (244) 
0

>  <r_epik_Ionization_Penalty_Neutral>  (244) 
3.56461e-06

>  <r_epik_State_Penalty>  (244) 
-0

>  <r_epik_Charging_Adjusted_Penalty>  (244) 
0

>  <i_epik_Tot_Q>  (244) 
0

>  <i_epik_Tot_abs_Q>  (244) 
0

>  <s_lp_Force_Field>  (244) 
OPLS3e

>  <r_lp_Energy>  (244) 
612.696

>  <b_lp_Chiralities_Consistent>  (244) 
1

>  <s_lp_Variant>  (244) 
86:0-2

>  <s_i_glide_gridfile>  (244) 
pfpi4k_grid

>  <i_i_glide_lignum>  (244) 
4

>  <i_i_glide_rotatable_bonds>  (244) 
3

>  <r_i_docking_score>  (244) 
-2.43633

>  <r_i_glide_ligand_efficiency>  (244) 
-0.0870118

>  <r_i_glide_ligand_efficiency_sa>  (244) 
-0.264219

>  <r_i_glide_ligand_efficiency_ln>  (244) 
-0.562376

>  <r_i_glide_gscore>  (244) 
-2.43633

>  <r_i_glide_lipo>  (244) 
-0.85516

>  <r_i_glide_hbond>  (244) 
0

>  <r_i_glide_metal>  (244) 
-0

>  <r_i_glide_rewards>  (244) 
-0.746208

>  <r_i_glide_evdw>  (244) 
-11.8221

>  <r_i_glide_ecoul>  (244) 
-1.62572

>  <r_i_glide_erotb>  (244) 
0

>  <r_i_glide_esite>  (244) 
0

>  <r_i_glide_emodel>  (244) 
-13.5915

>  <r_i_glide_energy>  (244) 
-13.4478

>  <r_i_glide_einternal>  (244) 
0.767017

>  <r_i_glide_intrahb_reward>  (244) 
-0

>  <i_i_glide_confnum>  (244) 
2

>  <i_i_glide_posenum>  (244) 
8

>  <r_i_glide_eff_state_penalty>  (244) 
0

>  <ligand_id>  (244) 
86

>  <original_smiles>  (244) 
CC1CCC2(O)C3(O)CCC45OC6CCC3C(O)C(C)C(CCC4C)C52CC16

>  <smiles>  (244) 
[H]OC1([H])C([H])(C([H])([H])[H])C2([H])C([H])([H])C([H])([H])C([H])(C([H])([H])[H])C34OC5([H])C([H])([H])C([H])([H])C1([H])C(O[H])(C([H])([H])C3([H])[H])C1(O[H])C([H])([H])C([H])([H])C([H])(C([H])([H])[H])C5([H])C([H])([H])C241

$$$$
86:1:2
     RDKit          3D

 66 71  0  0  1  0  0  0  0  0999 V2000
    2.9603   -1.9272   -3.3370 C   0  0  0  0  0  0  0  0  0  0  0  0
    3.3126   -3.0966   -2.4095 C   0  0  2  0  0  0  0  0  0  0  0  0
    2.1419   -3.5525   -1.5582 C   0  0  0  0  0  0  0  0  0  0  0  0
    2.4068   -4.4798   -0.3098 C   0  0  0  0  0  0  0  0  0  0  0  0
    3.3838   -4.1016    0.9486 C   0  0  2  0  0  0  0  0  0  0  0  0
    2.7263   -5.1393    1.6917 O   0  0  0  0  0  0  0  0  0  0  0  0
    3.4105   -2.7617    1.7419 C   0  0  2  0  0  0  0  0  0  0  0  0
    2.1075   -2.5574    1.1311 O   0  0  0  0  0  0  0  0  0  0  0  0
    4.8784   -1.9357    2.2704 C   0  0  0  0  0  0  0  0  0  0  0  0
    6.1934   -2.3987    1.9741 C   0  0  0  0  0  0  0  0  0  0  0  0
    6.0730   -3.0411    0.6928 C   0  0  1  0  0  0  0  0  0  0  0  0
    5.8770   -1.8336   -0.0984 O   0  0  0  0  0  0  0  0  0  0  0  0
    4.5512   -1.5290   -0.5518 C   0  0  1  0  0  0  0  0  0  0  0  0
    3.5381   -0.4983    0.3989 C   0  0  0  0  0  0  0  0  0  0  0  0
    2.9293   -0.5790    2.0557 C   0  0  0  0  0  0  0  0  0  0  0  0
    2.7018   -2.1664    2.8351 C   0  0  2  0  0  0  0  0  0  0  0  0
    3.4327   -3.2961    3.8572 C   0  0  1  0  0  0  0  0  0  0  0  0
    2.3251   -3.9877    4.3951 O   0  0  0  0  0  0  0  0  0  0  0  0
    4.6072   -4.5032    3.5029 C   0  0  1  0  0  0  0  0  0  0  0  0
    4.3801   -5.7625    4.3687 C   0  0  0  0  0  0  0  0  0  0  0  0
    5.2443   -5.0716    2.0136 C   0  0  2  0  0  0  0  0  0  0  0  0
    6.7460   -5.4895    2.1261 C   0  0  0  0  0  0  0  0  0  0  0  0
    7.5901   -5.1506    0.8866 C   0  0  0  0  0  0  0  0  0  0  0  0
    7.5237   -3.6518    0.4871 C   0  0  1  0  0  0  0  0  0  0  0  0
    8.2315   -3.3303   -0.8517 C   0  0  0  0  0  0  0  0  0  0  0  0
    4.9261   -4.1812    0.7147 C   0  0  1  0  0  0  0  0  0  0  0  0
    4.9969   -4.2738   -0.8450 C   0  0  0  0  0  0  0  0  0  0  0  0
    4.5288   -2.8523   -1.5188 C   0  0  1  0  0  0  0  0  0  0  0  0
    2.6806   -1.0331   -2.7773 H   0  0  0  0  0  0  0  0  0  0  0  0
    2.1160   -2.1959   -3.9717 H   0  0  0  0  0  0  0  0  0  0  0  0
    3.7940   -1.6837   -3.9964 H   0  0  0  0  0  0  0  0  0  0  0  0
    3.5603   -3.9183   -3.0744 H   0  0  0  0  0  0  0  0  0  0  0  0
    1.6281   -2.6635   -1.2472 H   0  0  0  0  0  0  0  0  0  0  0  0
    1.4233   -4.0529   -2.2036 H   0  0  0  0  0  0  0  0  0  0  0  0
    1.4247   -4.6727    0.0428 H   0  0  0  0  0  0  0  0  0  0  0  0
    2.6522   -5.4660   -0.6933 H   0  0  0  0  0  0  0  0  0  0  0  0
    3.1516   -5.1991    2.5337 H   0  0  0  0  0  0  0  0  0  0  0  0
    2.1314   -1.7811    0.5795 H   0  0  0  0  0  0  0  0  0  0  0  0
    5.1330   -0.9331    1.9305 H   0  0  0  0  0  0  0  0  0  0  0  0
    4.9331   -1.6190    3.3152 H   0  0  0  0  0  0  0  0  0  0  0  0
    6.9125   -1.5789    1.9508 H   0  0  0  0  0  0  0  0  0  0  0  0
    6.5045   -3.0516    2.7315 H   0  0  0  0  0  0  0  0  0  0  0  0
    3.7571   -2.1438   -0.3506 H   0  0  0  0  0  0  0  0  0  0  0  0
    4.0479    0.4632    0.3523 H   0  0  0  0  0  0  0  0  0  0  0  0
    2.6429   -0.3850   -0.2089 H   0  0  0  0  0  0  0  0  0  0  0  0
    3.4791    0.1154    2.7029 H   0  0  0  0  0  0  0  0  0  0  0  0
    1.9471   -0.1108    2.0097 H   0  0  0  0  0  0  0  0  0  0  0  0
    1.6217   -2.2359    3.1030 H   0  0  0  0  0  0  0  0  0  0  0  0
    3.8140   -2.7546    4.7241 H   0  0  0  0  0  0  0  0  0  0  0  0
    2.6424   -4.5524    5.0832 H   0  0  0  0  0  0  0  0  0  0  0  0
    5.4588   -4.1016    4.0418 H   0  0  0  0  0  0  0  0  0  0  0  0
    3.5351   -6.3610    4.0207 H   0  0  0  0  0  0  0  0  0  0  0  0
    4.2132   -5.5034    5.4150 H   0  0  0  0  0  0  0  0  0  0  0  0
    5.2585   -6.4068    4.3457 H   0  0  0  0  0  0  0  0  0  0  0  0
    4.8195   -6.0570    1.8129 H   0  0  0  0  0  0  0  0  0  0  0  0
    7.2094   -5.0836    3.0330 H   0  0  0  0  0  0  0  0  0  0  0  0
    6.7966   -6.5679    2.2644 H   0  0  0  0  0  0  0  0  0  0  0  0
    8.6208   -5.4200    1.0813 H   0  0  0  0  0  0  0  0  0  0  0  0
    7.2741   -5.8058    0.0857 H   0  0  0  0  0  0  0  0  0  0  0  0
    8.2046   -3.1704    1.1955 H   0  0  0  0  0  0  0  0  0  0  0  0
    7.8261   -3.8456   -1.7168 H   0  0  0  0  0  0  0  0  0  0  0  0
    9.2802   -3.6189   -0.7915 H   0  0  0  0  0  0  0  0  0  0  0  0
    8.2074   -2.2608   -1.0572 H   0  0  0  0  0  0  0  0  0  0  0  0
    5.9747   -4.5070   -1.1977 H   0  0  0  0  0  0  0  0  0  0  0  0
    4.5226   -5.1543   -1.2556 H   0  0  0  0  0  0  0  0  0  0  0  0
    5.3039   -2.6530   -2.2525 H   0  0  0  0  0  0  0  0  0  0  0  0
  1  2  1  0
  1 29  1  0
  1 30  1  0
  1 31  1  0
  2 28  1  0
  2  3  1  0
  2 32  1  6
  3  4  1  0
  3 33  1  0
  3 34  1  0
  4  5  1  0
  4 35  1  0
  4 36  1  0
  5 26  1  0
  5  6  1  1
  5  7  1  0
  6 37  1  0
  7 16  1  0
  7  8  1  6
  7  9  1  0
  8 38  1  0
  9 10  1  0
  9 39  1  0
  9 40  1  0
 11 10  1  1
 10 41  1  0
 10 42  1  0
 11 24  1  0
 11 26  1  0
 11 12  1  0
 12 13  1  0
 13 28  1  0
 13 14  1  0
 13 43  1  6
 14 15  1  0
 14 44  1  0
 14 45  1  0
 15 16  1  0
 15 46  1  0
 15 47  1  0
 16 17  1  0
 16 48  1  6
 17 18  1  0
 17 19  1  0
 17 49  1  1
 18 50  1  0
 19 20  1  0
 19 21  1  0
 19 51  1  1
 20 52  1  0
 20 53  1  0
 20 54  1  0
 21 22  1  0
 21 26  1  0
 21 55  1  6
 22 23  1  0
 22 56  1  0
 22 57  1  0
 23 24  1  0
 23 58  1  0
 23 59  1  0
 24 25  1  0
 24 60  1  1
 25 61  1  0
 25 62  1  0
 25 63  1  0
 26 27  1  6
 27 28  1  0
 27 64  1  0
 27 65  1  0
 28 66  1  6
M  END
>  <i_m_ct_stereo_status>  (245) 
1

>  <s_m_source_file>  (245) 
/var/tmp/pbs.5076255.sched01/tmp7yh4k8o6/114t33l0ocj.sdf

>  <i_m_source_file_index>  (245) 
4

>  <i_lp_mmshare_version>  (245) 
48012

>  <i_f3d_flags>  (245) 
0

>  <s_epik_input>  (245) 
W0NIMl0xW0NIMl1bQ0BASF0oW0NIM10pW0NASF0oW0NIMl0yKVtDQEhdKE8zKVtDSDJdW0NIMl1bQ0BASF0oW0NAXShbT0hdKShbQ0BdMShbT0hdKVtDQF0yNFtDQEBdMzU2KVtDSDJdW0NIMl01KVtDQEBIXShbT0hdKVtDQEBIXShbQ0gzXSlbQ0BASF00W0NIMl1bQ0gyXVtDQEhdNltDSDNd

>  <s_epik_cmdline>  (245) 
J2VwaWtfcHl0aG9uJywgJy1waHQnLCAnMi4wJywgJy1waCcsICc3LjAnLCAnLXRuJywgJzgnLCAnLW1hJywgJzIwMCcsICctaW1hZScsICc8aW5maWxlLm1hZT4nLCAnLW9tYWUnLCAnPG91dGZpbGUubWFlPic=

>  <r_lp_tautomer_probability>  (245) 
1

>  <r_epik_Ionization_Penalty>  (245) 
3.56461e-06

>  <r_epik_Ionization_Penalty_Charging>  (245) 
0

>  <r_epik_Ionization_Penalty_Neutral>  (245) 
3.56461e-06

>  <r_epik_State_Penalty>  (245) 
-0

>  <r_epik_Charging_Adjusted_Penalty>  (245) 
0

>  <i_epik_Tot_Q>  (245) 
0

>  <i_epik_Tot_abs_Q>  (245) 
0

>  <s_lp_Force_Field>  (245) 
OPLS3e

>  <r_lp_Energy>  (245) 
612.696

>  <b_lp_Chiralities_Consistent>  (245) 
1

>  <s_lp_Variant>  (245) 
86:0-2

>  <s_i_glide_gridfile>  (245) 
pfpi4k_grid

>  <i_i_glide_lignum>  (245) 
4

>  <i_i_glide_rotatable_bonds>  (245) 
3

>  <r_i_docking_score>  (245) 
-2.40303

>  <r_i_glide_ligand_efficiency>  (245) 
-0.0858224

>  <r_i_glide_ligand_efficiency_sa>  (245) 
-0.260607

>  <r_i_glide_ligand_efficiency_ln>  (245) 
-0.554689

>  <r_i_glide_gscore>  (245) 
-2.40303

>  <r_i_glide_lipo>  (245) 
-0.858396

>  <r_i_glide_hbond>  (245) 
0

>  <r_i_glide_metal>  (245) 
-0

>  <r_i_glide_rewards>  (245) 
-0.746208

>  <r_i_glide_evdw>  (245) 
-12.6241

>  <r_i_glide_ecoul>  (245) 
-1.11479

>  <r_i_glide_erotb>  (245) 
0

>  <r_i_glide_esite>  (245) 
0

>  <r_i_glide_emodel>  (245) 
-13.9733

>  <r_i_glide_energy>  (245) 
-13.7389

>  <r_i_glide_einternal>  (245) 
0.869247

>  <r_i_glide_intrahb_reward>  (245) 
-0

>  <i_i_glide_confnum>  (245) 
2

>  <i_i_glide_posenum>  (245) 
1

>  <r_i_glide_eff_state_penalty>  (245) 
0

>  <ligand_id>  (245) 
86

>  <original_smiles>  (245) 
CC1CCC2(O)C3(O)CCC45OC6CCC3C(O)C(C)C(CCC4C)C52CC16

>  <smiles>  (245) 
[H]OC1([H])C([H])(C([H])([H])[H])C2([H])C([H])([H])C([H])([H])C([H])(C([H])([H])[H])C34OC5([H])C([H])([H])C([H])([H])C1([H])C(O[H])(C([H])([H])C3([H])[H])C1(O[H])C([H])([H])C([H])([H])C([H])(C([H])([H])[H])C5([H])C([H])([H])C241

$$$$
87:0:0
     RDKit          3D

 46 51  0  0  1  0  0  0  0  0999 V2000
    6.1474   -9.1061    2.1644 C   0  0  0  0  0  0  0  0  0  0  0  0
    6.0984   -7.8523    1.4993 O   0  0  0  0  0  0  0  0  0  0  0  0
    5.0885   -6.9687    1.8130 C   0  0  0  0  0  0  0  0  0  0  0  0
    4.1605   -7.1574    2.8853 C   0  0  0  0  0  0  0  0  0  0  0  0
    3.2060   -6.1654    3.2314 C   0  0  0  0  0  0  0  0  0  0  0  0
    3.1252   -5.0168    2.4262 C   0  0  0  0  0  0  0  0  0  0  0  0
    3.9802   -4.9336    1.3292 C   0  0  0  0  0  0  0  0  0  0  0  0
    5.0296   -5.7960    1.0242 C   0  0  0  0  0  0  0  0  0  0  0  0
    5.9621   -5.4481    0.0807 O   0  0  0  0  0  0  0  0  0  0  0  0
    6.1905   -4.0357   -0.0005 C   0  0  0  0  0  0  0  0  0  0  0  0
    4.9158   -3.2201   -0.3979 C   0  0  2  0  0  0  0  0  0  0  0  0
    4.7699   -3.3309   -1.9596 C   0  0  1  0  0  0  0  0  0  0  0  0
    3.5813   -2.5829   -2.5365 C   0  0  0  0  0  0  0  0  0  0  0  0
    3.8490   -1.2936   -2.4091 C   0  0  0  0  0  0  0  0  0  0  0  0
    5.2071   -1.2303   -1.7707 C   0  0  2  0  0  0  0  0  0  0  0  0
    5.8148   -2.4138   -2.2702 O   0  0  0  0  0  0  0  0  0  0  0  0
    5.1447   -1.6606   -0.2880 C   0  0  1  0  0  0  0  0  0  0  0  0
    4.1797   -0.7771    0.5840 C   0  0  0  0  0  0  0  0  0  0  0  0
    2.9588   -1.4623    1.0992 N   0  0  2  0  0  0  0  0  0  0  0  0
    2.2138   -0.6152    2.0615 C   0  0  0  0  0  0  0  0  0  0  0  0
    3.3562   -2.7871    1.6215 C   0  0  1  0  0  0  0  0  0  0  0  0
    2.4416   -3.6518    2.5319 C   0  0  0  0  0  0  0  0  0  0  0  0
    3.7218   -3.7211    0.4854 C   0  0  2  0  0  0  0  0  0  0  0  0
    2.5505   -3.9375   -0.2846 O   0  0  0  0  0  0  0  0  0  0  0  0
    6.9989   -9.6767    1.7911 H   0  0  0  0  0  0  0  0  0  0  0  0
    5.2494   -9.6908    1.9654 H   0  0  0  0  0  0  0  0  0  0  0  0
    6.2822   -8.9979    3.2412 H   0  0  0  0  0  0  0  0  0  0  0  0
    4.2076   -8.0417    3.4958 H   0  0  0  0  0  0  0  0  0  0  0  0
    2.5714   -6.2854    4.0997 H   0  0  0  0  0  0  0  0  0  0  0  0
    6.5652   -3.7005    0.9672 H   0  0  0  0  0  0  0  0  0  0  0  0
    6.9996   -3.8722   -0.7133 H   0  0  0  0  0  0  0  0  0  0  0  0
    4.9148   -4.3230   -2.3874 H   0  0  0  0  0  0  0  0  0  0  0  0
    2.6849   -3.0331   -2.9374 H   0  0  0  0  0  0  0  0  0  0  0  0
    3.2358   -0.4463   -2.6787 H   0  0  0  0  0  0  0  0  0  0  0  0
    5.7665   -0.3218   -1.9855 H   0  0  0  0  0  0  0  0  0  0  0  0
    6.1483   -1.5033    0.1122 H   0  0  0  0  0  0  0  0  0  0  0  0
    4.7542   -0.4355    1.4462 H   0  0  0  0  0  0  0  0  0  0  0  0
    3.9015    0.1424    0.0740 H   0  0  0  0  0  0  0  0  0  0  0  0
    2.8024   -0.4071    2.9570 H   0  0  0  0  0  0  0  0  0  0  0  0
    1.2810   -1.0888    2.3633 H   0  0  0  0  0  0  0  0  0  0  0  0
    1.9540    0.3403    1.6024 H   0  0  0  0  0  0  0  0  0  0  0  0
    4.2482   -2.6122    2.2281 H   0  0  0  0  0  0  0  0  0  0  0  0
    1.4191   -3.7232    2.1642 H   0  0  0  0  0  0  0  0  0  0  0  0
    2.4206   -3.2879    3.5603 H   0  0  0  0  0  0  0  0  0  0  0  0
    2.7734   -4.5332   -0.9900 H   0  0  0  0  0  0  0  0  0  0  0  0
    2.3346   -1.6105    0.3075 H   0  0  0  0  0  0  0  0  0  0  0  0
  1  2  1  0
  1 25  1  0
  1 26  1  0
  1 27  1  0
  2  3  1  0
  3  8  2  0
  3  4  1  0
  4  5  2  0
  4 28  1  0
  5  6  1  0
  5 29  1  0
  6 22  1  0
  6  7  2  0
  7 23  1  0
  7  8  1  0
  8  9  1  0
  9 10  1  0
 11 10  1  1
 10 30  1  0
 10 31  1  0
 11 17  1  0
 11 23  1  0
 11 12  1  0
 12 16  1  0
 12 13  1  0
 12 32  1  6
 13 14  2  0
 13 33  1  0
 14 15  1  0
 14 34  1  0
 15 16  1  0
 15 17  1  0
 15 35  1  1
 17 18  1  0
 17 36  1  1
 18 19  1  0
 18 37  1  0
 18 38  1  0
 19 20  1  0
 19 21  1  0
 19 46  1  6
 20 39  1  0
 20 40  1  0
 20 41  1  0
 21 22  1  0
 21 23  1  0
 21 42  1  1
 22 43  1  0
 22 44  1  0
 23 24  1  6
 24 45  1  0
M  CHG  1  19   1
M  END
>  <i_m_ct_stereo_status>  (246) 
1

>  <s_m_source_file>  (246) 
/var/tmp/pbs.5076255.sched01/tmp7yh4k8o6/114t33l0ocj.sdf

>  <i_m_source_file_index>  (246) 
5

>  <i_lp_mmshare_version>  (246) 
48012

>  <i_f3d_flags>  (246) 
0

>  <s_epik_input>  (246) 
W0NIMl0xT2MyYyhPW0NIM10pW2NIXVtjSF1jKFtDSDJdMyljMltDQEBdNChbT0hdKVtDQEhdM04oW0NIM10pW0NIMl1bQ0BASF01W0NAQEhdKE82KVtDSF09W0NIXVtDQEBIXTZbQ0BdMTQ1

>  <s_epik_cmdline>  (246) 
J2VwaWtfcHl0aG9uJywgJy1waHQnLCAnMi4wJywgJy1waCcsICc3LjAnLCAnLXRuJywgJzgnLCAnLW1hJywgJzIwMCcsICctaW1hZScsICc8aW5maWxlLm1hZT4nLCAnLW9tYWUnLCAnPG91dGZpbGUubWFlPic=

>  <r_lp_tautomer_probability>  (246) 
1

>  <r_epik_Ionization_Penalty>  (246) 
0.0434091

>  <r_epik_Ionization_Penalty_Charging>  (246) 
0.0434053

>  <r_epik_Ionization_Penalty_Neutral>  (246) 
3.78478e-06

>  <r_epik_State_Penalty>  (246) 
0.0367238

>  <r_epik_Charging_Adjusted_Penalty>  (246) 
0.0801291

>  <i_epik_Tot_Q>  (246) 
1

>  <i_epik_Tot_abs_Q>  (246) 
1

>  <s_lp_Force_Field>  (246) 
OPLS3e

>  <r_lp_Energy>  (246) 
74.6859

>  <b_lp_Chiralities_Consistent>  (246) 
1

>  <s_lp_Variant>  (246) 
87:0-1

>  <s_i_glide_gridfile>  (246) 
pfpi4k_grid

>  <i_i_glide_lignum>  (246) 
5

>  <i_i_glide_rotatable_bonds>  (246) 
2

>  <r_i_docking_score>  (246) 
-4.16408

>  <r_i_glide_ligand_efficiency>  (246) 
-0.173503

>  <r_i_glide_ligand_efficiency_sa>  (246) 
-0.50047

>  <r_i_glide_ligand_efficiency_ln>  (246) 
-0.996655

>  <r_i_glide_gscore>  (246) 
-4.16408

>  <r_i_glide_lipo>  (246) 
-0.390872

>  <r_i_glide_hbond>  (246) 
-0.323991

>  <r_i_glide_metal>  (246) 
-0

>  <r_i_glide_rewards>  (246) 
-1.17012

>  <r_i_glide_evdw>  (246) 
-22.1546

>  <r_i_glide_ecoul>  (246) 
-7.45232

>  <r_i_glide_erotb>  (246) 
0

>  <r_i_glide_esite>  (246) 
-0.0535152

>  <r_i_glide_emodel>  (246) 
-38.1946

>  <r_i_glide_energy>  (246) 
-29.6069

>  <r_i_glide_einternal>  (246) 
0.7195

>  <r_i_glide_intrahb_reward>  (246) 
-0

>  <i_i_glide_confnum>  (246) 
2

>  <i_i_glide_posenum>  (246) 
19

>  <r_i_glide_eff_state_penalty>  (246) 
0

>  <ligand_id>  (246) 
87

>  <original_smiles>  (246) 
COc1ccc2c3c1OCC14C5C=CC(O5)C1CN(C)C(C2)C34O

>  <smiles>  (246) 
[H]OC12c3c4c(OC([H])([H])[H])c([H])c([H])c3C([H])([H])C1([H])[N+]([H])(C([H])([H])[H])C([H])([H])C1([H])C3([H])OC([H])(C([H])=C3[H])C21C([H])([H])O4

$$$$
87:0:1
     RDKit          3D

 46 51  0  0  1  0  0  0  0  0999 V2000
    5.2270   -9.1307    1.6851 C   0  0  0  0  0  0  0  0  0  0  0  0
    5.3208   -7.8580    1.0602 O   0  0  0  0  0  0  0  0  0  0  0  0
    4.4798   -6.8440    1.4682 C   0  0  0  0  0  0  0  0  0  0  0  0
    3.6360   -6.9236    2.6223 C   0  0  0  0  0  0  0  0  0  0  0  0
    2.8696   -5.8153    3.0673 C   0  0  0  0  0  0  0  0  0  0  0  0
    2.8857   -4.6474    2.2819 C   0  0  0  0  0  0  0  0  0  0  0  0
    3.6364   -4.6632    1.1118 C   0  0  0  0  0  0  0  0  0  0  0  0
    4.5184   -5.6581    0.6988 C   0  0  0  0  0  0  0  0  0  0  0  0
    5.4043   -5.4214   -0.3199 O   0  0  0  0  0  0  0  0  0  0  0  0
    5.8233   -4.0536   -0.3994 C   0  0  0  0  0  0  0  0  0  0  0  0
    4.6483   -3.0631   -0.6708 C   0  0  2  0  0  0  0  0  0  0  0  0
    4.3482   -3.1278   -2.2110 C   0  0  1  0  0  0  0  0  0  0  0  0
    3.2360   -2.2084   -2.6715 C   0  0  0  0  0  0  0  0  0  0  0  0
    3.7032   -0.9738   -2.5636 C   0  0  0  0  0  0  0  0  0  0  0  0
    5.1026   -1.1147   -2.0457 C   0  0  2  0  0  0  0  0  0  0  0  0
    5.4836   -2.3641   -2.6037 O   0  0  0  0  0  0  0  0  0  0  0  0
    5.1128   -1.5596   -0.5691 C   0  0  1  0  0  0  0  0  0  0  0  0
    4.3753   -0.5630    0.3950 C   0  0  0  0  0  0  0  0  0  0  0  0
    3.1123   -1.0691    1.0140 N   0  0  2  0  0  0  0  0  0  0  0  0
    2.5893   -0.1510    2.0514 C   0  0  0  0  0  0  0  0  0  0  0  0
    3.3644   -2.4516    1.4853 C   0  0  1  0  0  0  0  0  0  0  0  0
    2.4305   -3.2021    2.4701 C   0  0  0  0  0  0  0  0  0  0  0  0
    3.4778   -3.4047    0.3122 C   0  0  2  0  0  0  0  0  0  0  0  0
    2.2141   -3.4499   -0.3322 O   0  0  0  0  0  0  0  0  0  0  0  0
    5.9537   -9.8070    1.2324 H   0  0  0  0  0  0  0  0  0  0  0  0
    4.2395   -9.5678    1.5363 H   0  0  0  0  0  0  0  0  0  0  0  0
    5.4522   -9.0901    2.7519 H   0  0  0  0  0  0  0  0  0  0  0  0
    3.6149   -7.8179    3.2188 H   0  0  0  0  0  0  0  0  0  0  0  0
    2.3103   -5.8602    3.9935 H   0  0  0  0  0  0  0  0  0  0  0  0
    6.3266   -3.8065    0.5362 H   0  0  0  0  0  0  0  0  0  0  0  0
    6.5868   -3.9703   -1.1727 H   0  0  0  0  0  0  0  0  0  0  0  0
    4.3160   -4.1191   -2.6630 H   0  0  0  0  0  0  0  0  0  0  0  0
    2.2555   -2.5124   -3.0011 H   0  0  0  0  0  0  0  0  0  0  0  0
    3.2032   -0.0438   -2.7794 H   0  0  0  0  0  0  0  0  0  0  0  0
    5.7593   -0.2850   -2.3059 H   0  0  0  0  0  0  0  0  0  0  0  0
    6.1601   -1.5564   -0.2621 H   0  0  0  0  0  0  0  0  0  0  0  0
    5.0692   -0.3397    1.2085 H   0  0  0  0  0  0  0  0  0  0  0  0
    4.2126    0.3976   -0.0849 H   0  0  0  0  0  0  0  0  0  0  0  0
    3.2775   -0.0515    2.8921 H   0  0  0  0  0  0  0  0  0  0  0  0
    1.6269   -0.4972    2.4283 H   0  0  0  0  0  0  0  0  0  0  0  0
    2.4283    0.8415    1.6273 H   0  0  0  0  0  0  0  0  0  0  0  0
    4.3243   -2.4250    2.0036 H   0  0  0  0  0  0  0  0  0  0  0  0
    1.3879   -3.1052    2.1879 H   0  0  0  0  0  0  0  0  0  0  0  0
    2.5527   -2.8657    3.4998 H   0  0  0  0  0  0  0  0  0  0  0  0
    2.0257   -2.6141   -0.7512 H   0  0  0  0  0  0  0  0  0  0  0  0
    2.3906   -1.0858    0.2936 H   0  0  0  0  0  0  0  0  0  0  0  0
  1  2  1  0
  1 25  1  0
  1 26  1  0
  1 27  1  0
  2  3  1  0
  3  8  2  0
  3  4  1  0
  4  5  2  0
  4 28  1  0
  5  6  1  0
  5 29  1  0
  6 22  1  0
  6  7  2  0
  7 23  1  0
  7  8  1  0
  8  9  1  0
  9 10  1  0
 11 10  1  6
 10 30  1  0
 10 31  1  0
 11 17  1  0
 11 23  1  0
 11 12  1  0
 12 16  1  0
 12 13  1  0
 12 32  1  6
 13 14  2  0
 13 33  1  0
 14 15  1  0
 14 34  1  0
 15 16  1  0
 15 17  1  0
 15 35  1  1
 17 18  1  0
 17 36  1  1
 18 19  1  0
 18 37  1  0
 18 38  1  0
 19 20  1  0
 19 21  1  0
 19 46  1  6
 20 39  1  0
 20 40  1  0
 20 41  1  0
 21 22  1  0
 21 23  1  0
 21 42  1  1
 22 43  1  0
 22 44  1  0
 23 24  1  6
 24 45  1  0
M  CHG  1  19   1
M  END
>  <i_m_ct_stereo_status>  (247) 
1

>  <s_m_source_file>  (247) 
/var/tmp/pbs.5076255.sched01/tmp7yh4k8o6/114t33l0ocj.sdf

>  <i_m_source_file_index>  (247) 
5

>  <i_lp_mmshare_version>  (247) 
48012

>  <i_f3d_flags>  (247) 
0

>  <s_epik_input>  (247) 
W0NIMl0xT2MyYyhPW0NIM10pW2NIXVtjSF1jKFtDSDJdMyljMltDQEBdNChbT0hdKVtDQEhdM04oW0NIM10pW0NIMl1bQ0BASF01W0NAQEhdKE82KVtDSF09W0NIXVtDQEBIXTZbQ0BdMTQ1

>  <s_epik_cmdline>  (247) 
J2VwaWtfcHl0aG9uJywgJy1waHQnLCAnMi4wJywgJy1waCcsICc3LjAnLCAnLXRuJywgJzgnLCAnLW1hJywgJzIwMCcsICctaW1hZScsICc8aW5maWxlLm1hZT4nLCAnLW9tYWUnLCAnPG91dGZpbGUubWFlPic=

>  <r_lp_tautomer_probability>  (247) 
1

>  <r_epik_Ionization_Penalty>  (247) 
0.0434091

>  <r_epik_Ionization_Penalty_Charging>  (247) 
0.0434053

>  <r_epik_Ionization_Penalty_Neutral>  (247) 
3.78478e-06

>  <r_epik_State_Penalty>  (247) 
0.0367238

>  <r_epik_Charging_Adjusted_Penalty>  (247) 
0.0801291

>  <i_epik_Tot_Q>  (247) 
1

>  <i_epik_Tot_abs_Q>  (247) 
1

>  <s_lp_Force_Field>  (247) 
OPLS3e

>  <r_lp_Energy>  (247) 
74.6859

>  <b_lp_Chiralities_Consistent>  (247) 
1

>  <s_lp_Variant>  (247) 
87:0-1

>  <s_i_glide_gridfile>  (247) 
pfpi4k_grid

>  <i_i_glide_lignum>  (247) 
5

>  <i_i_glide_rotatable_bonds>  (247) 
2

>  <r_i_docking_score>  (247) 
-4.13382

>  <r_i_glide_ligand_efficiency>  (247) 
-0.172242

>  <r_i_glide_ligand_efficiency_sa>  (247) 
-0.496833

>  <r_i_glide_ligand_efficiency_ln>  (247) 
-0.989412

>  <r_i_glide_gscore>  (247) 
-4.13382

>  <r_i_glide_lipo>  (247) 
-0.337271

>  <r_i_glide_hbond>  (247) 
-0.343806

>  <r_i_glide_metal>  (247) 
-0

>  <r_i_glide_rewards>  (247) 
-1.17012

>  <r_i_glide_evdw>  (247) 
-21.2831

>  <r_i_glide_ecoul>  (247) 
-7.73635

>  <r_i_glide_erotb>  (247) 
0

>  <r_i_glide_esite>  (247) 
-0.0580117

>  <r_i_glide_emodel>  (247) 
-37.736

>  <r_i_glide_energy>  (247) 
-29.0194

>  <r_i_glide_einternal>  (247) 
0.235161

>  <r_i_glide_intrahb_reward>  (247) 
-0

>  <i_i_glide_confnum>  (247) 
2

>  <i_i_glide_posenum>  (247) 
21

>  <r_i_glide_eff_state_penalty>  (247) 
0

>  <ligand_id>  (247) 
87

>  <original_smiles>  (247) 
COc1ccc2c3c1OCC14C5C=CC(O5)C1CN(C)C(C2)C34O

>  <smiles>  (247) 
[H]OC12c3c4c(OC([H])([H])[H])c([H])c([H])c3C([H])([H])C1([H])[N+]([H])(C([H])([H])[H])C([H])([H])C1([H])C3([H])OC([H])(C([H])=C3[H])C21C([H])([H])O4

$$$$
87:0:2
     RDKit          3D

 46 51  0  0  1  0  0  0  0  0999 V2000
    4.7844   -9.2912    1.6359 C   0  0  0  0  0  0  0  0  0  0  0  0
    4.9191   -8.0363    0.9843 O   0  0  0  0  0  0  0  0  0  0  0  0
    4.1201   -6.9863    1.3854 C   0  0  0  0  0  0  0  0  0  0  0  0
    3.2437   -7.0317    2.5160 C   0  0  0  0  0  0  0  0  0  0  0  0
    2.5181   -5.8892    2.9483 C   0  0  0  0  0  0  0  0  0  0  0  0
    2.6118   -4.7189    2.1775 C   0  0  0  0  0  0  0  0  0  0  0  0
    3.4006   -4.7626    1.0304 C   0  0  0  0  0  0  0  0  0  0  0  0
    4.2360   -5.7984    0.6248 C   0  0  0  0  0  0  0  0  0  0  0  0
    5.1406   -5.5927   -0.3825 O   0  0  0  0  0  0  0  0  0  0  0  0
    5.6462   -4.2506   -0.4248 C   0  0  0  0  0  0  0  0  0  0  0  0
    4.5381   -3.1968   -0.7220 C   0  0  2  0  0  0  0  0  0  0  0  0
    4.2703   -3.2326   -2.2747 C   0  0  1  0  0  0  0  0  0  0  0  0
    3.2083   -2.2591   -2.7591 C   0  0  0  0  0  0  0  0  0  0  0  0
    3.7211   -1.0502   -2.6200 C   0  0  0  0  0  0  0  0  0  0  0  0
    5.1016   -1.2554   -2.0731 C   0  0  2  0  0  0  0  0  0  0  0  0
    5.4430   -2.5128   -2.6379 O   0  0  0  0  0  0  0  0  0  0  0  0
    5.0571   -1.7136   -0.5999 C   0  0  1  0  0  0  0  0  0  0  0  0
    4.3261   -0.6980    0.3518 C   0  0  0  0  0  0  0  0  0  0  0  0
    3.0261   -1.1547    0.9309 N   0  0  2  0  0  0  0  0  0  0  0  0
    2.5267   -0.2163    1.9650 C   0  0  0  0  0  0  0  0  0  0  0  0
    3.2169   -2.5411    1.4058 C   0  0  1  0  0  0  0  0  0  0  0  0
    2.2273   -3.2478    2.3668 C   0  0  0  0  0  0  0  0  0  0  0  0
    3.3423   -3.4955    0.2352 C   0  0  2  0  0  0  0  0  0  0  0  0
    2.1393   -3.4674   -0.4856 O   0  0  0  0  0  0  0  0  0  0  0  0
    5.4850  -10.0011    1.1949 H   0  0  0  0  0  0  0  0  0  0  0  0
    3.7817   -9.6959    1.5003 H   0  0  0  0  0  0  0  0  0  0  0  0
    5.0147   -9.2325    2.7006 H   0  0  0  0  0  0  0  0  0  0  0  0
    3.1604   -7.9269    3.1054 H   0  0  0  0  0  0  0  0  0  0  0  0
    1.9324   -5.9127    3.8596 H   0  0  0  0  0  0  0  0  0  0  0  0
    6.1335   -4.0294    0.5278 H   0  0  0  0  0  0  0  0  0  0  0  0
    6.4238   -4.2062   -1.1828 H   0  0  0  0  0  0  0  0  0  0  0  0
    4.2153   -4.2182   -2.7362 H   0  0  0  0  0  0  0  0  0  0  0  0
    2.2139   -2.5132   -3.1048 H   0  0  0  0  0  0  0  0  0  0  0  0
    3.2632   -0.0935   -2.8276 H   0  0  0  0  0  0  0  0  0  0  0  0
    5.7980   -0.4527   -2.3057 H   0  0  0  0  0  0  0  0  0  0  0  0
    6.0943   -1.7595   -0.2619 H   0  0  0  0  0  0  0  0  0  0  0  0
    5.0087   -0.5022    1.1821 H   0  0  0  0  0  0  0  0  0  0  0  0
    4.2172    0.2682   -0.1330 H   0  0  0  0  0  0  0  0  0  0  0  0
    3.2000   -0.1538    2.8225 H   0  0  0  0  0  0  0  0  0  0  0  0
    1.5428   -0.5145    2.3244 H   0  0  0  0  0  0  0  0  0  0  0  0
    2.4265    0.7891    1.5520 H   0  0  0  0  0  0  0  0  0  0  0  0
    4.1603   -2.5534    1.9543 H   0  0  0  0  0  0  0  0  0  0  0  0
    1.1963   -3.0692    2.0836 H   0  0  0  0  0  0  0  0  0  0  0  0
    2.3496   -2.9274    3.4025 H   0  0  0  0  0  0  0  0  0  0  0  0
    2.2359   -4.0310   -1.2410 H   0  0  0  0  0  0  0  0  0  0  0  0
    2.3272   -1.1722    0.1849 H   0  0  0  0  0  0  0  0  0  0  0  0
  1  2  1  0
  1 25  1  0
  1 26  1  0
  1 27  1  0
  2  3  1  0
  3  8  2  0
  3  4  1  0
  4  5  2  0
  4 28  1  0
  5  6  1  0
  5 29  1  0
  6 22  1  0
  6  7  2  0
  7 23  1  0
  7  8  1  0
  8  9  1  0
  9 10  1  0
 11 10  1  6
 10 30  1  0
 10 31  1  0
 11 17  1  0
 11 23  1  0
 11 12  1  0
 12 16  1  0
 12 13  1  0
 12 32  1  6
 13 14  2  0
 13 33  1  0
 14 15  1  0
 14 34  1  0
 15 16  1  0
 15 17  1  0
 15 35  1  1
 17 18  1  0
 17 36  1  1
 18 19  1  0
 18 37  1  0
 18 38  1  0
 19 20  1  0
 19 21  1  0
 19 46  1  6
 20 39  1  0
 20 40  1  0
 20 41  1  0
 21 22  1  0
 21 23  1  0
 21 42  1  1
 22 43  1  0
 22 44  1  0
 23 24  1  6
 24 45  1  0
M  CHG  1  19   1
M  END
>  <i_m_ct_stereo_status>  (248) 
1

>  <s_m_source_file>  (248) 
/var/tmp/pbs.5076255.sched01/tmp7yh4k8o6/114t33l0ocj.sdf

>  <i_m_source_file_index>  (248) 
5

>  <i_lp_mmshare_version>  (248) 
48012

>  <i_f3d_flags>  (248) 
0

>  <s_epik_input>  (248) 
W0NIMl0xT2MyYyhPW0NIM10pW2NIXVtjSF1jKFtDSDJdMyljMltDQEBdNChbT0hdKVtDQEhdM04oW0NIM10pW0NIMl1bQ0BASF01W0NAQEhdKE82KVtDSF09W0NIXVtDQEBIXTZbQ0BdMTQ1

>  <s_epik_cmdline>  (248) 
J2VwaWtfcHl0aG9uJywgJy1waHQnLCAnMi4wJywgJy1waCcsICc3LjAnLCAnLXRuJywgJzgnLCAnLW1hJywgJzIwMCcsICctaW1hZScsICc8aW5maWxlLm1hZT4nLCAnLW9tYWUnLCAnPG91dGZpbGUubWFlPic=

>  <r_lp_tautomer_probability>  (248) 
1

>  <r_epik_Ionization_Penalty>  (248) 
0.0434091

>  <r_epik_Ionization_Penalty_Charging>  (248) 
0.0434053

>  <r_epik_Ionization_Penalty_Neutral>  (248) 
3.78478e-06

>  <r_epik_State_Penalty>  (248) 
0.0367238

>  <r_epik_Charging_Adjusted_Penalty>  (248) 
0.0801291

>  <i_epik_Tot_Q>  (248) 
1

>  <i_epik_Tot_abs_Q>  (248) 
1

>  <s_lp_Force_Field>  (248) 
OPLS3e

>  <r_lp_Energy>  (248) 
74.6859

>  <b_lp_Chiralities_Consistent>  (248) 
1

>  <s_lp_Variant>  (248) 
87:0-1

>  <s_i_glide_gridfile>  (248) 
pfpi4k_grid

>  <i_i_glide_lignum>  (248) 
5

>  <i_i_glide_rotatable_bonds>  (248) 
2

>  <r_i_docking_score>  (248) 
-3.95524

>  <r_i_glide_ligand_efficiency>  (248) 
-0.164802

>  <r_i_glide_ligand_efficiency_sa>  (248) 
-0.47537

>  <r_i_glide_ligand_efficiency_ln>  (248) 
-0.94667

>  <r_i_glide_gscore>  (248) 
-3.95524

>  <r_i_glide_lipo>  (248) 
-0.314097

>  <r_i_glide_hbond>  (248) 
-0.217575

>  <r_i_glide_metal>  (248) 
-0

>  <r_i_glide_rewards>  (248) 
-1.17012

>  <r_i_glide_evdw>  (248) 
-20.7685

>  <r_i_glide_ecoul>  (248) 
-7.68187

>  <r_i_glide_erotb>  (248) 
0

>  <r_i_glide_esite>  (248) 
-0.0627425

>  <r_i_glide_emodel>  (248) 
-36.4822

>  <r_i_glide_energy>  (248) 
-28.4504

>  <r_i_glide_einternal>  (248) 
0.789129

>  <r_i_glide_intrahb_reward>  (248) 
-0

>  <i_i_glide_confnum>  (248) 
1

>  <i_i_glide_posenum>  (248) 
32

>  <r_i_glide_eff_state_penalty>  (248) 
0

>  <ligand_id>  (248) 
87

>  <original_smiles>  (248) 
COc1ccc2c3c1OCC14C5C=CC(O5)C1CN(C)C(C2)C34O

>  <smiles>  (248) 
[H]OC12c3c4c(OC([H])([H])[H])c([H])c([H])c3C([H])([H])C1([H])[N+]([H])(C([H])([H])[H])C([H])([H])C1([H])C3([H])OC([H])(C([H])=C3[H])C21C([H])([H])O4

$$$$
87:1:0
     RDKit          3D

 45 50  0  0  1  0  0  0  0  0999 V2000
    6.0921   -9.9263    1.8945 C   0  0  0  0  0  0  0  0  0  0  0  0
    5.9128   -8.6591    1.2801 O   0  0  0  0  0  0  0  0  0  0  0  0
    4.8058   -7.9063    1.6093 C   0  0  0  0  0  0  0  0  0  0  0  0
    3.8112   -8.3260    2.5473 C   0  0  0  0  0  0  0  0  0  0  0  0
    2.7484   -7.4700    2.9401 C   0  0  0  0  0  0  0  0  0  0  0  0
    2.6405   -6.2212    2.3073 C   0  0  0  0  0  0  0  0  0  0  0  0
    3.5689   -5.9057    1.3216 C   0  0  0  0  0  0  0  0  0  0  0  0
    4.7056   -6.6352    0.9880 C   0  0  0  0  0  0  0  0  0  0  0  0
    5.6752   -6.0714    0.1954 O   0  0  0  0  0  0  0  0  0  0  0  0
    5.8010   -4.6586    0.3867 C   0  0  0  0  0  0  0  0  0  0  0  0
    4.5068   -3.8809   -0.0173 C   0  0  2  0  0  0  0  0  0  0  0  0
    4.5449   -3.7485   -1.5838 C   0  0  1  0  0  0  0  0  0  0  0  0
    3.3814   -2.9814   -2.1795 C   0  0  0  0  0  0  0  0  0  0  0  0
    3.5571   -1.7160   -1.8391 C   0  0  0  0  0  0  0  0  0  0  0  0
    4.8185   -1.6876   -1.0240 C   0  0  2  0  0  0  0  0  0  0  0  0
    5.5561   -2.7414   -1.6283 O   0  0  0  0  0  0  0  0  0  0  0  0
    4.5931   -2.3558    0.3540 C   0  0  1  0  0  0  0  0  0  0  0  0
    3.4496   -1.6964    1.2043 C   0  0  0  0  0  0  0  0  0  0  0  0
    2.2906   -2.5215    1.5903 N   0  0  0  0  0  0  0  0  0  0  0  0
    1.5540   -1.8856    2.6793 C   0  0  0  0  0  0  0  0  0  0  0  0
    2.7470   -3.8684    1.8918 C   0  0  1  0  0  0  0  0  0  0  0  0
    1.8487   -4.9483    2.5596 C   0  0  0  0  0  0  0  0  0  0  0  0
    3.2784   -4.5945    0.6532 C   0  0  2  0  0  0  0  0  0  0  0  0
    2.2148   -4.7866   -0.2714 O   0  0  0  0  0  0  0  0  0  0  0  0
    7.0000  -10.3870    1.5036 H   0  0  0  0  0  0  0  0  0  0  0  0
    5.2655  -10.6037    1.6798 H   0  0  0  0  0  0  0  0  0  0  0  0
    6.2132   -9.8315    2.9746 H   0  0  0  0  0  0  0  0  0  0  0  0
    3.8770   -9.2882    3.0276 H   0  0  0  0  0  0  0  0  0  0  0  0
    2.0582   -7.7605    3.7215 H   0  0  0  0  0  0  0  0  0  0  0  0
    6.0482   -4.4686    1.4332 H   0  0  0  0  0  0  0  0  0  0  0  0
    6.6675   -4.3299   -0.1889 H   0  0  0  0  0  0  0  0  0  0  0  0
    4.8074   -4.6527   -2.1348 H   0  0  0  0  0  0  0  0  0  0  0  0
    2.5589   -3.4100   -2.7353 H   0  0  0  0  0  0  0  0  0  0  0  0
    2.9138   -0.8697   -2.0382 H   0  0  0  0  0  0  0  0  0  0  0  0
    5.3376   -0.7270   -1.0148 H   0  0  0  0  0  0  0  0  0  0  0  0
    5.5127   -2.2111    0.9223 H   0  0  0  0  0  0  0  0  0  0  0  0
    3.9240   -1.3249    2.1145 H   0  0  0  0  0  0  0  0  0  0  0  0
    3.0901   -0.7959    0.7028 H   0  0  0  0  0  0  0  0  0  0  0  0
    0.6524   -2.4397    2.9362 H   0  0  0  0  0  0  0  0  0  0  0  0
    1.2449   -0.8784    2.3956 H   0  0  0  0  0  0  0  0  0  0  0  0
    2.1691   -1.8003    3.5743 H   0  0  0  0  0  0  0  0  0  0  0  0
    3.5838   -3.7521    2.5855 H   0  0  0  0  0  0  0  0  0  0  0  0
    0.8766   -5.0563    2.0878 H   0  0  0  0  0  0  0  0  0  0  0  0
    1.7085   -4.7561    3.6218 H   0  0  0  0  0  0  0  0  0  0  0  0
    2.5780   -5.2234   -1.0346 H   0  0  0  0  0  0  0  0  0  0  0  0
  1  2  1  0
  1 25  1  0
  1 26  1  0
  1 27  1  0
  2  3  1  0
  3  8  2  0
  3  4  1  0
  4  5  2  0
  4 28  1  0
  5  6  1  0
  5 29  1  0
  6 22  1  0
  6  7  2  0
  7 23  1  0
  7  8  1  0
  8  9  1  0
  9 10  1  0
 11 10  1  1
 10 30  1  0
 10 31  1  0
 11 17  1  0
 11 23  1  0
 11 12  1  0
 12 16  1  0
 12 13  1  0
 12 32  1  6
 13 14  2  0
 13 33  1  0
 14 15  1  0
 14 34  1  0
 15 16  1  0
 15 17  1  0
 15 35  1  1
 17 18  1  0
 17 36  1  1
 18 19  1  0
 18 37  1  0
 18 38  1  0
 19 20  1  0
 19 21  1  0
 20 39  1  0
 20 40  1  0
 20 41  1  0
 21 22  1  0
 21 23  1  0
 21 42  1  1
 22 43  1  0
 22 44  1  0
 23 24  1  6
 24 45  1  0
M  END
>  <i_m_ct_stereo_status>  (249) 
1

>  <s_m_source_file>  (249) 
/var/tmp/pbs.5076255.sched01/tmp7yh4k8o6/114t33l0ocj.sdf

>  <i_m_source_file_index>  (249) 
6

>  <i_lp_mmshare_version>  (249) 
48012

>  <i_f3d_flags>  (249) 
0

>  <s_epik_input>  (249) 
W0NIMl0xT2MyYyhPW0NIM10pW2NIXVtjSF1jKFtDSDJdMyljMltDQEBdNChbT0hdKVtDQEhdM04oW0NIM10pW0NIMl1bQ0BASF01W0NAQEhdKE82KVtDSF09W0NIXVtDQEBIXTZbQ0BdMTQ1

>  <s_epik_cmdline>  (249) 
J2VwaWtfcHl0aG9uJywgJy1waHQnLCAnMi4wJywgJy1waCcsICc3LjAnLCAnLXRuJywgJzgnLCAnLW1hJywgJzIwMCcsICctaW1hZScsICc8aW5maWxlLm1hZT4nLCAnLW9tYWUnLCAnPG91dGZpbGUubWFlPic=

>  <r_lp_tautomer_probability>  (249) 
1

>  <r_epik_Ionization_Penalty>  (249) 
1.57018

>  <r_epik_Ionization_Penalty_Charging>  (249) 
0

>  <r_epik_Ionization_Penalty_Neutral>  (249) 
1.57018

>  <r_epik_State_Penalty>  (249) 
1.66591

>  <r_epik_Charging_Adjusted_Penalty>  (249) 
1.66591

>  <i_epik_Tot_Q>  (249) 
0

>  <i_epik_Tot_abs_Q>  (249) 
0

>  <s_lp_Force_Field>  (249) 
OPLS3e

>  <r_lp_Energy>  (249) 
66.5066

>  <b_lp_Chiralities_Consistent>  (249) 
1

>  <s_lp_Variant>  (249) 
87:0-2

>  <s_i_glide_gridfile>  (249) 
pfpi4k_grid

>  <i_i_glide_lignum>  (249) 
6

>  <i_i_glide_rotatable_bonds>  (249) 
2

>  <r_i_docking_score>  (249) 
-3.56353

>  <r_i_glide_ligand_efficiency>  (249) 
-0.14848

>  <r_i_glide_ligand_efficiency_sa>  (249) 
-0.428292

>  <r_i_glide_ligand_efficiency_ln>  (249) 
-0.852917

>  <r_i_glide_gscore>  (249) 
-3.56353

>  <r_i_glide_lipo>  (249) 
-0.302741

>  <r_i_glide_hbond>  (249) 
-0.32

>  <r_i_glide_metal>  (249) 
-0

>  <r_i_glide_rewards>  (249) 
-1.17699

>  <r_i_glide_evdw>  (249) 
-20.455

>  <r_i_glide_ecoul>  (249) 
-4.94031

>  <r_i_glide_erotb>  (249) 
0

>  <r_i_glide_esite>  (249) 
0

>  <r_i_glide_emodel>  (249) 
-30.9907

>  <r_i_glide_energy>  (249) 
-25.3953

>  <r_i_glide_einternal>  (249) 
0.620795

>  <r_i_glide_intrahb_reward>  (249) 
-0

>  <i_i_glide_confnum>  (249) 
1

>  <i_i_glide_posenum>  (249) 
12

>  <r_i_glide_eff_state_penalty>  (249) 
0

>  <ligand_id>  (249) 
87

>  <original_smiles>  (249) 
COc1ccc2c3c1OCC14C5C=CC(O5)C1CN(C)C(C2)C34O

>  <smiles>  (249) 
[H]OC12c3c4c(OC([H])([H])[H])c([H])c([H])c3C([H])([H])C1([H])N(C([H])([H])[H])C([H])([H])C1([H])C3([H])OC([H])(C([H])=C3[H])C21C([H])([H])O4

$$$$
87:1:1
     RDKit          3D

 45 50  0  0  1  0  0  0  0  0999 V2000
    5.0218   -9.2580    1.7115 C   0  0  0  0  0  0  0  0  0  0  0  0
    5.1365   -8.0009    1.0597 O   0  0  0  0  0  0  0  0  0  0  0  0
    4.3736   -6.9440    1.5065 C   0  0  0  0  0  0  0  0  0  0  0  0
    3.5837   -6.9780    2.6955 C   0  0  0  0  0  0  0  0  0  0  0  0
    2.8938   -5.8263    3.1643 C   0  0  0  0  0  0  0  0  0  0  0  0
    2.9150   -4.6718    2.3665 C   0  0  0  0  0  0  0  0  0  0  0  0
    3.6138   -4.7275    1.1689 C   0  0  0  0  0  0  0  0  0  0  0  0
    4.4330   -5.7646    0.7294 C   0  0  0  0  0  0  0  0  0  0  0  0
    5.2955   -5.5733   -0.3186 O   0  0  0  0  0  0  0  0  0  0  0  0
    5.7788   -4.2279   -0.4025 C   0  0  0  0  0  0  0  0  0  0  0  0
    4.6456   -3.1867   -0.6505 C   0  0  2  0  0  0  0  0  0  0  0  0
    4.3077   -3.2422   -2.1886 C   0  0  1  0  0  0  0  0  0  0  0  0
    3.2466   -2.2571   -2.6393 C   0  0  0  0  0  0  0  0  0  0  0  0
    3.7918   -1.0609   -2.5528 C   0  0  0  0  0  0  0  0  0  0  0  0
    5.1801   -1.2878   -2.0510 C   0  0  2  0  0  0  0  0  0  0  0  0
    5.4788   -2.5533   -2.6193 O   0  0  0  0  0  0  0  0  0  0  0  0
    5.1870   -1.7150   -0.5689 C   0  0  1  0  0  0  0  0  0  0  0  0
    4.5001   -0.6813    0.3862 C   0  0  0  0  0  0  0  0  0  0  0  0
    3.3054   -1.1111    1.1309 N   0  0  0  0  0  0  0  0  0  0  0  0
    3.0441   -0.1911    2.2339 C   0  0  0  0  0  0  0  0  0  0  0  0
    3.4916   -2.4901    1.5562 C   0  0  1  0  0  0  0  0  0  0  0  0
    2.5523   -3.2046    2.5651 C   0  0  0  0  0  0  0  0  0  0  0  0
    3.4950   -3.4642    0.3771 C   0  0  2  0  0  0  0  0  0  0  0  0
    2.2205   -3.4261   -0.2453 O   0  0  0  0  0  0  0  0  0  0  0  0
    5.6855   -9.9769    1.2284 H   0  0  0  0  0  0  0  0  0  0  0  0
    4.0058   -9.6443    1.6301 H   0  0  0  0  0  0  0  0  0  0  0  0
    5.3126   -9.2077    2.7618 H   0  0  0  0  0  0  0  0  0  0  0  0
    3.5517   -7.8639    3.3063 H   0  0  0  0  0  0  0  0  0  0  0  0
    2.3947   -5.8280    4.1240 H   0  0  0  0  0  0  0  0  0  0  0  0
    6.3206   -3.9986    0.5172 H   0  0  0  0  0  0  0  0  0  0  0  0
    6.5210   -4.1770   -1.1952 H   0  0  0  0  0  0  0  0  0  0  0  0
    4.2152   -4.2339   -2.6312 H   0  0  0  0  0  0  0  0  0  0  0  0
    2.2375   -2.4957   -2.9419 H   0  0  0  0  0  0  0  0  0  0  0  0
    3.3589   -0.0927   -2.7635 H   0  0  0  0  0  0  0  0  0  0  0  0
    5.8400   -0.4684   -2.3133 H   0  0  0  0  0  0  0  0  0  0  0  0
    6.2327   -1.7652   -0.2582 H   0  0  0  0  0  0  0  0  0  0  0  0
    5.2635   -0.3580    1.0996 H   0  0  0  0  0  0  0  0  0  0  0  0
    4.2599    0.2216   -0.1740 H   0  0  0  0  0  0  0  0  0  0  0  0
    2.1341   -0.4521    2.7721 H   0  0  0  0  0  0  0  0  0  0  0  0
    2.9267    0.8309    1.8693 H   0  0  0  0  0  0  0  0  0  0  0  0
    3.8717   -0.1930    2.9412 H   0  0  0  0  0  0  0  0  0  0  0  0
    4.4787   -2.5263    2.0202 H   0  0  0  0  0  0  0  0  0  0  0  0
    1.5004   -3.0426    2.3353 H   0  0  0  0  0  0  0  0  0  0  0  0
    2.7532   -2.8865    3.5836 H   0  0  0  0  0  0  0  0  0  0  0  0
    2.0819   -2.5342   -0.5515 H   0  0  0  0  0  0  0  0  0  0  0  0
  1  2  1  0
  1 25  1  0
  1 26  1  0
  1 27  1  0
  2  3  1  0
  3  8  2  0
  3  4  1  0
  4  5  2  0
  4 28  1  0
  5  6  1  0
  5 29  1  0
  6 22  1  0
  6  7  2  0
  7 23  1  0
  7  8  1  0
  8  9  1  0
  9 10  1  0
 11 10  1  6
 10 30  1  0
 10 31  1  0
 11 17  1  0
 11 23  1  0
 11 12  1  0
 12 16  1  0
 12 13  1  0
 12 32  1  6
 13 14  2  0
 13 33  1  0
 14 15  1  0
 14 34  1  0
 15 16  1  0
 15 17  1  0
 15 35  1  1
 17 18  1  0
 17 36  1  1
 18 19  1  0
 18 37  1  0
 18 38  1  0
 19 20  1  0
 19 21  1  0
 20 39  1  0
 20 40  1  0
 20 41  1  0
 21 22  1  0
 21 23  1  0
 21 42  1  1
 22 43  1  0
 22 44  1  0
 23 24  1  6
 24 45  1  0
M  END
>  <i_m_ct_stereo_status>  (250) 
1

>  <s_m_source_file>  (250) 
/var/tmp/pbs.5076255.sched01/tmp7yh4k8o6/114t33l0ocj.sdf

>  <i_m_source_file_index>  (250) 
6

>  <i_lp_mmshare_version>  (250) 
48012

>  <i_f3d_flags>  (250) 
0

>  <s_epik_input>  (250) 
W0NIMl0xT2MyYyhPW0NIM10pW2NIXVtjSF1jKFtDSDJdMyljMltDQEBdNChbT0hdKVtDQEhdM04oW0NIM10pW0NIMl1bQ0BASF01W0NAQEhdKE82KVtDSF09W0NIXVtDQEBIXTZbQ0BdMTQ1

>  <s_epik_cmdline>  (250) 
J2VwaWtfcHl0aG9uJywgJy1waHQnLCAnMi4wJywgJy1waCcsICc3LjAnLCAnLXRuJywgJzgnLCAnLW1hJywgJzIwMCcsICctaW1hZScsICc8aW5maWxlLm1hZT4nLCAnLW9tYWUnLCAnPG91dGZpbGUubWFlPic=

>  <r_lp_tautomer_probability>  (250) 
1

>  <r_epik_Ionization_Penalty>  (250) 
1.57018

>  <r_epik_Ionization_Penalty_Charging>  (250) 
0

>  <r_epik_Ionization_Penalty_Neutral>  (250) 
1.57018

>  <r_epik_State_Penalty>  (250) 
1.66591

>  <r_epik_Charging_Adjusted_Penalty>  (250) 
1.66591

>  <i_epik_Tot_Q>  (250) 
0

>  <i_epik_Tot_abs_Q>  (250) 
0

>  <s_lp_Force_Field>  (250) 
OPLS3e

>  <r_lp_Energy>  (250) 
66.5066

>  <b_lp_Chiralities_Consistent>  (250) 
1

>  <s_lp_Variant>  (250) 
87:0-2

>  <s_i_glide_gridfile>  (250) 
pfpi4k_grid

>  <i_i_glide_lignum>  (250) 
6

>  <i_i_glide_rotatable_bonds>  (250) 
2

>  <r_i_docking_score>  (250) 
-3.11423

>  <r_i_glide_ligand_efficiency>  (250) 
-0.12976

>  <r_i_glide_ligand_efficiency_sa>  (250) 
-0.374292

>  <r_i_glide_ligand_efficiency_ln>  (250) 
-0.745379

>  <r_i_glide_gscore>  (250) 
-3.11423

>  <r_i_glide_lipo>  (250) 
-0.332243

>  <r_i_glide_hbond>  (250) 
-0.149404

>  <r_i_glide_metal>  (250) 
-0

>  <r_i_glide_rewards>  (250) 
-1.17699

>  <r_i_glide_evdw>  (250) 
-21.9389

>  <r_i_glide_ecoul>  (250) 
-2.39098

>  <r_i_glide_erotb>  (250) 
0

>  <r_i_glide_esite>  (250) 
0

>  <r_i_glide_emodel>  (250) 
-29.2998

>  <r_i_glide_energy>  (250) 
-24.3299

>  <r_i_glide_einternal>  (250) 
0.214149

>  <r_i_glide_intrahb_reward>  (250) 
-0

>  <i_i_glide_confnum>  (250) 
1

>  <i_i_glide_posenum>  (250) 
23

>  <r_i_glide_eff_state_penalty>  (250) 
0

>  <ligand_id>  (250) 
87

>  <original_smiles>  (250) 
COc1ccc2c3c1OCC14C5C=CC(O5)C1CN(C)C(C2)C34O

>  <smiles>  (250) 
[H]OC12c3c4c(OC([H])([H])[H])c([H])c([H])c3C([H])([H])C1([H])N(C([H])([H])[H])C([H])([H])C1([H])C3([H])OC([H])(C([H])=C3[H])C21C([H])([H])O4

$$$$
87:1:2
     RDKit          3D

 45 50  0  0  1  0  0  0  0  0999 V2000
    3.6850    0.6094   -4.3943 C   0  0  0  0  0  0  0  0  0  0  0  0
    4.2125    0.2808   -3.1179 O   0  0  0  0  0  0  0  0  0  0  0  0
    4.1186   -1.0135   -2.6779 C   0  0  0  0  0  0  0  0  0  0  0  0
    4.0044   -2.1229   -3.5687 C   0  0  0  0  0  0  0  0  0  0  0  0
    4.0721   -3.4542   -3.0962 C   0  0  0  0  0  0  0  0  0  0  0  0
    4.1427   -3.6646   -1.7065 C   0  0  0  0  0  0  0  0  0  0  0  0
    4.1247   -2.5512   -0.8824 C   0  0  0  0  0  0  0  0  0  0  0  0
    4.2136   -1.2223   -1.2769 C   0  0  0  0  0  0  0  0  0  0  0  0
    4.4626   -0.2548   -0.3357 O   0  0  0  0  0  0  0  0  0  0  0  0
    5.3011   -0.7227    0.7258 C   0  0  0  0  0  0  0  0  0  0  0  0
    4.6157   -1.8486    1.5622 C   0  0  2  0  0  0  0  0  0  0  0  0
    3.6116   -1.1322    2.5332 C   0  0  1  0  0  0  0  0  0  0  0  0
    2.8724   -2.0628    3.4741 C   0  0  0  0  0  0  0  0  0  0  0  0
    3.7685   -2.5047    4.3434 C   0  0  0  0  0  0  0  0  0  0  0  0
    5.0645   -1.8585    3.9468 C   0  0  2  0  0  0  0  0  0  0  0  0
    4.6076   -0.6221    3.4165 O   0  0  0  0  0  0  0  0  0  0  0  0
    5.5889   -2.4688    2.6250 C   0  0  1  0  0  0  0  0  0  0  0  0
    5.7974   -4.0284    2.6791 C   0  0  0  0  0  0  0  0  0  0  0  0
    5.0160   -4.8746    1.7667 N   0  0  0  0  0  0  0  0  0  0  0  0
    5.6322   -6.1973    1.6667 C   0  0  0  0  0  0  0  0  0  0  0  0
    4.9168   -4.1858    0.4924 C   0  0  1  0  0  0  0  0  0  0  0  0
    4.3840   -4.8568   -0.7880 C   0  0  0  0  0  0  0  0  0  0  0  0
    4.0607   -2.9241    0.5700 C   0  0  2  0  0  0  0  0  0  0  0  0
    2.7227   -3.2866    0.8789 O   0  0  0  0  0  0  0  0  0  0  0  0
    3.8093    1.6840   -4.5337 H   0  0  0  0  0  0  0  0  0  0  0  0
    2.6203    0.3887   -4.4509 H   0  0  0  0  0  0  0  0  0  0  0  0
    4.2104    0.1175   -5.2112 H   0  0  0  0  0  0  0  0  0  0  0  0
    3.9364   -1.9728   -4.6342 H   0  0  0  0  0  0  0  0  0  0  0  0
    4.0746   -4.2847   -3.7820 H   0  0  0  0  0  0  0  0  0  0  0  0
    6.2406   -1.0823    0.3016 H   0  0  0  0  0  0  0  0  0  0  0  0
    5.5514    0.1367    1.3415 H   0  0  0  0  0  0  0  0  0  0  0  0
    2.9825   -0.3583    2.0908 H   0  0  0  0  0  0  0  0  0  0  0  0
    1.8259   -2.3169    3.4144 H   0  0  0  0  0  0  0  0  0  0  0  0
    3.6357   -3.2032    5.1539 H   0  0  0  0  0  0  0  0  0  0  0  0
    5.7889   -1.7556    4.7577 H   0  0  0  0  0  0  0  0  0  0  0  0
    6.5666   -2.0254    2.4386 H   0  0  0  0  0  0  0  0  0  0  0  0
    6.8498   -4.2234    2.4678 H   0  0  0  0  0  0  0  0  0  0  0  0
    5.6648   -4.3754    3.7036 H   0  0  0  0  0  0  0  0  0  0  0  0
    5.0521   -6.8721    1.0388 H   0  0  0  0  0  0  0  0  0  0  0  0
    5.7179   -6.6595    2.6505 H   0  0  0  0  0  0  0  0  0  0  0  0
    6.6373   -6.1358    1.2534 H   0  0  0  0  0  0  0  0  0  0  0  0
    5.9335   -3.8802    0.2272 H   0  0  0  0  0  0  0  0  0  0  0  0
    3.4569   -5.3934   -0.5921 H   0  0  0  0  0  0  0  0  0  0  0  0
    5.1004   -5.5512   -1.2184 H   0  0  0  0  0  0  0  0  0  0  0  0
    2.1968   -2.5117    0.7543 H   0  0  0  0  0  0  0  0  0  0  0  0
  1  2  1  0
  1 25  1  0
  1 26  1  0
  1 27  1  0
  2  3  1  0
  3  8  2  0
  3  4  1  0
  4  5  2  0
  4 28  1  0
  5  6  1  0
  5 29  1  0
  6 22  1  0
  6  7  2  0
  7 23  1  0
  7  8  1  0
  8  9  1  0
  9 10  1  0
 11 10  1  6
 10 30  1  0
 10 31  1  0
 11 17  1  0
 11 23  1  0
 11 12  1  0
 12 16  1  0
 12 13  1  0
 12 32  1  6
 13 14  2  0
 13 33  1  0
 14 15  1  0
 14 34  1  0
 15 16  1  0
 15 17  1  0
 15 35  1  1
 17 18  1  0
 17 36  1  6
 18 19  1  0
 18 37  1  0
 18 38  1  0
 19 20  1  0
 19 21  1  0
 20 39  1  0
 20 40  1  0
 20 41  1  0
 21 22  1  0
 21 23  1  0
 21 42  1  6
 22 43  1  0
 22 44  1  0
 23 24  1  1
 24 45  1  0
M  END
>  <i_m_ct_stereo_status>  (251) 
1

>  <s_m_source_file>  (251) 
/var/tmp/pbs.5076255.sched01/tmp7yh4k8o6/114t33l0ocj.sdf

>  <i_m_source_file_index>  (251) 
6

>  <i_lp_mmshare_version>  (251) 
48012

>  <i_f3d_flags>  (251) 
0

>  <s_epik_input>  (251) 
W0NIMl0xT2MyYyhPW0NIM10pW2NIXVtjSF1jKFtDSDJdMyljMltDQEBdNChbT0hdKVtDQEhdM04oW0NIM10pW0NIMl1bQ0BASF01W0NAQEhdKE82KVtDSF09W0NIXVtDQEBIXTZbQ0BdMTQ1

>  <s_epik_cmdline>  (251) 
J2VwaWtfcHl0aG9uJywgJy1waHQnLCAnMi4wJywgJy1waCcsICc3LjAnLCAnLXRuJywgJzgnLCAnLW1hJywgJzIwMCcsICctaW1hZScsICc8aW5maWxlLm1hZT4nLCAnLW9tYWUnLCAnPG91dGZpbGUubWFlPic=

>  <r_lp_tautomer_probability>  (251) 
1

>  <r_epik_Ionization_Penalty>  (251) 
1.57018

>  <r_epik_Ionization_Penalty_Charging>  (251) 
0

>  <r_epik_Ionization_Penalty_Neutral>  (251) 
1.57018

>  <r_epik_State_Penalty>  (251) 
1.66591

>  <r_epik_Charging_Adjusted_Penalty>  (251) 
1.66591

>  <i_epik_Tot_Q>  (251) 
0

>  <i_epik_Tot_abs_Q>  (251) 
0

>  <s_lp_Force_Field>  (251) 
OPLS3e

>  <r_lp_Energy>  (251) 
66.5066

>  <b_lp_Chiralities_Consistent>  (251) 
1

>  <s_lp_Variant>  (251) 
87:0-2

>  <s_i_glide_gridfile>  (251) 
pfpi4k_grid

>  <i_i_glide_lignum>  (251) 
6

>  <i_i_glide_rotatable_bonds>  (251) 
2

>  <r_i_docking_score>  (251) 
-2.63307

>  <r_i_glide_ligand_efficiency>  (251) 
-0.109711

>  <r_i_glide_ligand_efficiency_sa>  (251) 
-0.316463

>  <r_i_glide_ligand_efficiency_ln>  (251) 
-0.630216

>  <r_i_glide_gscore>  (251) 
-2.63307

>  <r_i_glide_lipo>  (251) 
-0.605122

>  <r_i_glide_hbond>  (251) 
0

>  <r_i_glide_metal>  (251) 
-0

>  <r_i_glide_rewards>  (251) 
-1.17699

>  <r_i_glide_evdw>  (251) 
-20.3299

>  <r_i_glide_ecoul>  (251) 
1.10357

>  <r_i_glide_erotb>  (251) 
0

>  <r_i_glide_esite>  (251) 
0

>  <r_i_glide_emodel>  (251) 
-22.6508

>  <r_i_glide_energy>  (251) 
-19.2263

>  <r_i_glide_einternal>  (251) 
1.52792

>  <r_i_glide_intrahb_reward>  (251) 
-0

>  <i_i_glide_confnum>  (251) 
2

>  <i_i_glide_posenum>  (251) 
21

>  <r_i_glide_eff_state_penalty>  (251) 
0

>  <ligand_id>  (251) 
87

>  <original_smiles>  (251) 
COc1ccc2c3c1OCC14C5C=CC(O5)C1CN(C)C(C2)C34O

>  <smiles>  (251) 
[H]OC12c3c4c(OC([H])([H])[H])c([H])c([H])c3C([H])([H])C1([H])N(C([H])([H])[H])C([H])([H])C1([H])C3([H])OC([H])(C([H])=C3[H])C21C([H])([H])O4

$$$$
89:0:0
     RDKit          3D

 13 14  0  0  1  0  0  0  0  0999 V2000
    3.3757   -5.7335    0.4826 C   0  0  0  0  0  0  0  0  0  0  0  0
    4.0859   -6.8316    1.0217 C   0  0  0  0  0  0  0  0  0  0  0  0
    3.2510   -7.6364    1.6329 N   0  0  0  0  0  0  0  0  0  0  0  0
    2.0468   -7.0199    1.4561 N   0  0  0  0  0  0  0  0  0  0  0  0
    0.8208   -7.5158    1.9581 C   0  0  0  0  0  0  0  0  0  0  0  0
    0.7459   -8.7797    2.4808 C   0  0  0  0  0  0  0  0  0  0  0  0
   -0.8905   -9.0444    2.9530 S   0  0  0  0  0  0  0  0  0  0  0  0
   -1.3841   -7.5052    2.5005 N   0  0  0  0  0  0  0  0  0  0  0  0
   -0.4043   -6.8278    1.9805 N   0  0  0  0  0  0  0  0  0  0  0  0
    2.1014   -5.8540    0.7580 N   0  0  0  0  0  0  0  0  0  0  0  0
    3.7409   -4.8897   -0.0862 H   0  0  0  0  0  0  0  0  0  0  0  0
    5.1445   -7.0481    0.9775 H   0  0  0  0  0  0  0  0  0  0  0  0
    1.4981   -9.5468    2.5906 H   0  0  0  0  0  0  0  0  0  0  0  0
  1 10  2  0
  1  2  1  0
  1 11  1  0
  2  3  2  0
  2 12  1  0
  3  4  1  0
  4  5  1  0
  4 10  1  0
  5  9  1  0
  5  6  2  0
  6  7  1  0
  6 13  1  0
  7  8  1  0
  8  9  2  0
M  END
>  <i_m_ct_stereo_status>  (252) 
1

>  <s_m_source_file>  (252) 
/var/tmp/pbs.5076255.sched01/tmp7yh4k8o6/114t33l0ocj.sdf

>  <i_m_source_file_index>  (252) 
8

>  <i_lp_mmshare_version>  (252) 
48012

>  <i_f3d_flags>  (252) 
0

>  <s_epik_input>  (252) 
bjFbY0hdW2NIXW5uMS1jMltjSF1zbm4y

>  <s_epik_cmdline>  (252) 
J2VwaWtfcHl0aG9uJywgJy1waHQnLCAnMi4wJywgJy1waCcsICc3LjAnLCAnLXRuJywgJzgnLCAnLW1hJywgJzIwMCcsICctaW1hZScsICc8aW5maWxlLm1hZT4nLCAnLW9tYWUnLCAnPG91dGZpbGUubWFlPic=

>  <r_lp_tautomer_probability>  (252) 
1

>  <r_epik_Ionization_Penalty>  (252) 
1.61123e-09

>  <r_epik_Ionization_Penalty_Charging>  (252) 
0

>  <r_epik_Ionization_Penalty_Neutral>  (252) 
1.61123e-09

>  <r_epik_State_Penalty>  (252) 
-0

>  <r_epik_Charging_Adjusted_Penalty>  (252) 
0

>  <i_epik_Tot_Q>  (252) 
0

>  <i_epik_Tot_abs_Q>  (252) 
0

>  <s_lp_Force_Field>  (252) 
OPLS3e

>  <r_lp_Energy>  (252) 
7.92844

>  <b_lp_Chiralities_Consistent>  (252) 
1

>  <s_lp_Variant>  (252) 
89:0-1

>  <s_i_glide_gridfile>  (252) 
pfpi4k_grid

>  <i_i_glide_lignum>  (252) 
8

>  <i_i_glide_rotatable_bonds>  (252) 
1

>  <r_i_docking_score>  (252) 
-3.29227

>  <r_i_glide_ligand_efficiency>  (252) 
-0.329227

>  <r_i_glide_ligand_efficiency_sa>  (252) 
-0.709297

>  <r_i_glide_ligand_efficiency_ln>  (252) 
-0.996876

>  <r_i_glide_gscore>  (252) 
-3.29227

>  <r_i_glide_lipo>  (252) 
-0.108773

>  <r_i_glide_hbond>  (252) 
0

>  <r_i_glide_metal>  (252) 
-0

>  <r_i_glide_rewards>  (252) 
-2.25

>  <r_i_glide_evdw>  (252) 
-16.4443

>  <r_i_glide_ecoul>  (252) 
-3.30328

>  <r_i_glide_erotb>  (252) 
0.631826

>  <r_i_glide_esite>  (252) 
-0.247615

>  <r_i_glide_emodel>  (252) 
-24.3418

>  <r_i_glide_energy>  (252) 
-19.7476

>  <r_i_glide_einternal>  (252) 
0.1001

>  <r_i_glide_intrahb_reward>  (252) 
-0

>  <i_i_glide_confnum>  (252) 
2

>  <i_i_glide_posenum>  (252) 
28

>  <r_i_glide_eff_state_penalty>  (252) 
0

>  <ligand_id>  (252) 
89

>  <original_smiles>  (252) 
c1cnn(-c2csnn2)n1

>  <smiles>  (252) 
[H]c1nn(-c2nnsc2[H])nc1[H]

$$$$
89:0:1
     RDKit          3D

 13 14  0  0  1  0  0  0  0  0999 V2000
    3.0246   -1.3776   -3.8027 C   0  0  0  0  0  0  0  0  0  0  0  0
    4.0868   -0.7559   -3.1047 C   0  0  0  0  0  0  0  0  0  0  0  0
    4.3873   -1.4576   -2.0417 N   0  0  0  0  0  0  0  0  0  0  0  0
    3.4707   -2.4717   -2.0828 N   0  0  0  0  0  0  0  0  0  0  0  0
    3.3610   -3.4614   -1.0799 C   0  0  0  0  0  0  0  0  0  0  0  0
    4.4827   -3.9037   -0.4317 C   0  0  0  0  0  0  0  0  0  0  0  0
    3.9915   -5.1301    0.6752 S   0  0  0  0  0  0  0  0  0  0  0  0
    2.3718   -5.0049    0.2665 N   0  0  0  0  0  0  0  0  0  0  0  0
    2.1892   -4.1134   -0.6652 N   0  0  0  0  0  0  0  0  0  0  0  0
    2.6522   -2.4574   -3.1682 N   0  0  0  0  0  0  0  0  0  0  0  0
    2.5287   -1.0814   -4.7148 H   0  0  0  0  0  0  0  0  0  0  0  0
    4.6138    0.1578   -3.3391 H   0  0  0  0  0  0  0  0  0  0  0  0
    5.5184   -3.6248   -0.5480 H   0  0  0  0  0  0  0  0  0  0  0  0
  1 10  2  0
  1  2  1  0
  1 11  1  0
  2  3  2  0
  2 12  1  0
  3  4  1  0
  4  5  1  0
  4 10  1  0
  5  9  1  0
  5  6  2  0
  6  7  1  0
  6 13  1  0
  7  8  1  0
  8  9  2  0
M  END
>  <i_m_ct_stereo_status>  (253) 
1

>  <s_m_source_file>  (253) 
/var/tmp/pbs.5076255.sched01/tmp7yh4k8o6/114t33l0ocj.sdf

>  <i_m_source_file_index>  (253) 
8

>  <i_lp_mmshare_version>  (253) 
48012

>  <i_f3d_flags>  (253) 
0

>  <s_epik_input>  (253) 
bjFbY0hdW2NIXW5uMS1jMltjSF1zbm4y

>  <s_epik_cmdline>  (253) 
J2VwaWtfcHl0aG9uJywgJy1waHQnLCAnMi4wJywgJy1waCcsICc3LjAnLCAnLXRuJywgJzgnLCAnLW1hJywgJzIwMCcsICctaW1hZScsICc8aW5maWxlLm1hZT4nLCAnLW9tYWUnLCAnPG91dGZpbGUubWFlPic=

>  <r_lp_tautomer_probability>  (253) 
1

>  <r_epik_Ionization_Penalty>  (253) 
1.61123e-09

>  <r_epik_Ionization_Penalty_Charging>  (253) 
0

>  <r_epik_Ionization_Penalty_Neutral>  (253) 
1.61123e-09

>  <r_epik_State_Penalty>  (253) 
-0

>  <r_epik_Charging_Adjusted_Penalty>  (253) 
0

>  <i_epik_Tot_Q>  (253) 
0

>  <i_epik_Tot_abs_Q>  (253) 
0

>  <s_lp_Force_Field>  (253) 
OPLS3e

>  <r_lp_Energy>  (253) 
7.92844

>  <b_lp_Chiralities_Consistent>  (253) 
1

>  <s_lp_Variant>  (253) 
89:0-1

>  <s_i_glide_gridfile>  (253) 
pfpi4k_grid

>  <i_i_glide_lignum>  (253) 
8

>  <i_i_glide_rotatable_bonds>  (253) 
1

>  <r_i_docking_score>  (253) 
-3.08963

>  <r_i_glide_ligand_efficiency>  (253) 
-0.308963

>  <r_i_glide_ligand_efficiency_sa>  (253) 
-0.66564

>  <r_i_glide_ligand_efficiency_ln>  (253) 
-0.935518

>  <r_i_glide_gscore>  (253) 
-3.08963

>  <r_i_glide_lipo>  (253) 
-0.339638

>  <r_i_glide_hbond>  (253) 
0

>  <r_i_glide_metal>  (253) 
-0

>  <r_i_glide_rewards>  (253) 
-2.32552

>  <r_i_glide_evdw>  (253) 
-17.7124

>  <r_i_glide_ecoul>  (253) 
-0.0834543

>  <r_i_glide_erotb>  (253) 
0.631826

>  <r_i_glide_esite>  (253) 
-0.15816

>  <r_i_glide_emodel>  (253) 
-21.4742

>  <r_i_glide_energy>  (253) 
-17.7959

>  <r_i_glide_einternal>  (253) 
1.10524

>  <r_i_glide_intrahb_reward>  (253) 
-0

>  <i_i_glide_confnum>  (253) 
4

>  <i_i_glide_posenum>  (253) 
4

>  <r_i_glide_eff_state_penalty>  (253) 
0

>  <ligand_id>  (253) 
89

>  <original_smiles>  (253) 
c1cnn(-c2csnn2)n1

>  <smiles>  (253) 
[H]c1nn(-c2nnsc2[H])nc1[H]

$$$$
89:0:2
     RDKit          3D

 13 14  0  0  1  0  0  0  0  0999 V2000
    0.8890   -6.7385    7.5424 C   0  0  0  0  0  0  0  0  0  0  0  0
    0.6889   -5.4338    7.0345 C   0  0  0  0  0  0  0  0  0  0  0  0
    0.2694   -5.5003    5.7976 N   0  0  0  0  0  0  0  0  0  0  0  0
    0.2220   -6.8405    5.5588 N   0  0  0  0  0  0  0  0  0  0  0  0
   -0.1642   -7.3588    4.2968 C   0  0  0  0  0  0  0  0  0  0  0  0
   -0.5804   -8.6549    4.1803 C   0  0  0  0  0  0  0  0  0  0  0  0
   -0.9984   -8.9173    2.5305 S   0  0  0  0  0  0  0  0  0  0  0  0
   -0.5912   -7.3570    2.0635 N   0  0  0  0  0  0  0  0  0  0  0  0
   -0.1843   -6.6557    3.0776 N   0  0  0  0  0  0  0  0  0  0  0  0
    0.5902   -7.6199    6.6202 N   0  0  0  0  0  0  0  0  0  0  0  0
    1.2331   -7.0444    8.5199 H   0  0  0  0  0  0  0  0  0  0  0  0
    0.8367   -4.4788    7.5166 H   0  0  0  0  0  0  0  0  0  0  0  0
   -0.6785   -9.4403    4.9194 H   0  0  0  0  0  0  0  0  0  0  0  0
  1 10  2  0
  1  2  1  0
  1 11  1  0
  2  3  2  0
  2 12  1  0
  3  4  1  0
  4  5  1  0
  4 10  1  0
  5  9  1  0
  5  6  2  0
  6  7  1  0
  6 13  1  0
  7  8  1  0
  8  9  2  0
M  END
>  <i_m_ct_stereo_status>  (254) 
1

>  <s_m_source_file>  (254) 
/var/tmp/pbs.5076255.sched01/tmp7yh4k8o6/114t33l0ocj.sdf

>  <i_m_source_file_index>  (254) 
8

>  <i_lp_mmshare_version>  (254) 
48012

>  <i_f3d_flags>  (254) 
0

>  <s_epik_input>  (254) 
bjFbY0hdW2NIXW5uMS1jMltjSF1zbm4y

>  <s_epik_cmdline>  (254) 
J2VwaWtfcHl0aG9uJywgJy1waHQnLCAnMi4wJywgJy1waCcsICc3LjAnLCAnLXRuJywgJzgnLCAnLW1hJywgJzIwMCcsICctaW1hZScsICc8aW5maWxlLm1hZT4nLCAnLW9tYWUnLCAnPG91dGZpbGUubWFlPic=

>  <r_lp_tautomer_probability>  (254) 
1

>  <r_epik_Ionization_Penalty>  (254) 
1.61123e-09

>  <r_epik_Ionization_Penalty_Charging>  (254) 
0

>  <r_epik_Ionization_Penalty_Neutral>  (254) 
1.61123e-09

>  <r_epik_State_Penalty>  (254) 
-0

>  <r_epik_Charging_Adjusted_Penalty>  (254) 
0

>  <i_epik_Tot_Q>  (254) 
0

>  <i_epik_Tot_abs_Q>  (254) 
0

>  <s_lp_Force_Field>  (254) 
OPLS3e

>  <r_lp_Energy>  (254) 
7.92844

>  <b_lp_Chiralities_Consistent>  (254) 
1

>  <s_lp_Variant>  (254) 
89:0-1

>  <s_i_glide_gridfile>  (254) 
pfpi4k_grid

>  <i_i_glide_lignum>  (254) 
8

>  <i_i_glide_rotatable_bonds>  (254) 
1

>  <r_i_docking_score>  (254) 
-2.93255

>  <r_i_glide_ligand_efficiency>  (254) 
-0.293255

>  <r_i_glide_ligand_efficiency_sa>  (254) 
-0.631799

>  <r_i_glide_ligand_efficiency_ln>  (254) 
-0.887956

>  <r_i_glide_gscore>  (254) 
-2.93255

>  <r_i_glide_lipo>  (254) 
-0.0496844

>  <r_i_glide_hbond>  (254) 
0

>  <r_i_glide_metal>  (254) 
-0

>  <r_i_glide_rewards>  (254) 
-2.25

>  <r_i_glide_evdw>  (254) 
-14.451

>  <r_i_glide_ecoul>  (254) 
-2.09137

>  <r_i_glide_erotb>  (254) 
0.631826

>  <r_i_glide_esite>  (254) 
-0.22844

>  <r_i_glide_emodel>  (254) 
-20.4717

>  <r_i_glide_energy>  (254) 
-16.5423

>  <r_i_glide_einternal>  (254) 
0.34484

>  <r_i_glide_intrahb_reward>  (254) 
-0

>  <i_i_glide_confnum>  (254) 
2

>  <i_i_glide_posenum>  (254) 
36

>  <r_i_glide_eff_state_penalty>  (254) 
0

>  <ligand_id>  (254) 
89

>  <original_smiles>  (254) 
c1cnn(-c2csnn2)n1

>  <smiles>  (254) 
[H]c1nn(-c2nnsc2[H])nc1[H]

$$$$
90:0:0
     RDKit          3D

 25 27  0  0  1  0  0  0  0  0999 V2000
    4.2133   -3.3340   -3.6637 C   0  0  0  0  0  0  0  0  0  0  0  0
    4.7901   -3.4589   -2.3867 C   0  0  0  0  0  0  0  0  0  0  0  0
    4.9425   -2.3058   -1.5944 C   0  0  0  0  0  0  0  0  0  0  0  0
    5.5815   -2.3871   -0.2197 C   0  0  0  0  0  0  0  0  0  0  0  0
    4.6268   -2.1581    0.8519 N   0  0  0  0  0  0  0  0  0  0  0  0
    4.4486   -1.0327    1.5733 C   0  0  0  0  0  0  0  0  0  0  0  0
    3.5401   -1.0606    2.5473 N   0  0  0  0  0  0  0  0  0  0  0  0
    3.0516   -2.3503    2.4344 C   0  0  0  0  0  0  0  0  0  0  0  0
    2.1047   -2.9039    3.2036 N   0  0  0  0  0  0  0  0  0  0  0  0
    1.8421   -4.1777    2.8852 C   0  0  0  0  0  0  0  0  0  0  0  0
    2.3816   -4.9389    1.9248 N   0  0  0  0  0  0  0  0  0  0  0  0
    3.3423   -4.3873    1.1543 C   0  0  0  0  0  0  0  0  0  0  0  0
    3.7128   -3.0555    1.3889 C   0  0  0  0  0  0  0  0  0  0  0  0
    4.5112   -1.0733   -2.1225 C   0  0  0  0  0  0  0  0  0  0  0  0
    3.9406   -1.0532   -3.4110 C   0  0  0  0  0  0  0  0  0  0  0  0
    3.8163   -2.1531   -4.1829 N   0  0  0  0  0  0  0  0  0  0  0  0
    4.0946   -4.1995   -4.3000 H   0  0  0  0  0  0  0  0  0  0  0  0
    5.1040   -4.4320   -2.0362 H   0  0  0  0  0  0  0  0  0  0  0  0
    6.0421   -3.3650   -0.0710 H   0  0  0  0  0  0  0  0  0  0  0  0
    6.3785   -1.6484   -0.1458 H   0  0  0  0  0  0  0  0  0  0  0  0
    5.0350   -0.1454    1.3921 H   0  0  0  0  0  0  0  0  0  0  0  0
    1.0706   -4.6572    3.4671 H   0  0  0  0  0  0  0  0  0  0  0  0
    3.8077   -4.9889    0.3865 H   0  0  0  0  0  0  0  0  0  0  0  0
    4.6070   -0.1613   -1.5557 H   0  0  0  0  0  0  0  0  0  0  0  0
    3.6069   -0.1234   -3.8499 H   0  0  0  0  0  0  0  0  0  0  0  0
  1 16  2  0
  1  2  1  0
  1 17  1  0
  2  3  2  0
  2 18  1  0
  3  4  1  0
  3 14  1  0
  4  5  1  0
  4 19  1  0
  4 20  1  0
  5 13  1  0
  5  6  1  0
  6  7  2  0
  6 21  1  0
  7  8  1  0
  8 13  2  0
  8  9  1  0
  9 10  2  0
 10 11  1  0
 10 22  1  0
 11 12  2  0
 12 13  1  0
 12 23  1  0
 14 15  2  0
 14 24  1  0
 15 16  1  0
 15 25  1  0
M  END
>  <i_m_ct_stereo_status>  (255) 
1

>  <s_m_source_file>  (255) 
/var/tmp/pbs.5076255.sched01/tmp7yh4k8o6/114t33l0ocj.sdf

>  <i_m_source_file_index>  (255) 
9

>  <i_lp_mmshare_version>  (255) 
48012

>  <i_f3d_flags>  (255) 
0

>  <s_epik_input>  (255) 
W2NIXTFbY0hdbltjSF1bY0hdYzFbQ0gyXW4oW2NIXW4yKWMoYzIzKVtjSF1uW2NIXW4z

>  <s_epik_cmdline>  (255) 
J2VwaWtfcHl0aG9uJywgJy1waHQnLCAnMi4wJywgJy1waCcsICc3LjAnLCAnLXRuJywgJzgnLCAnLW1hJywgJzIwMCcsICctaW1hZScsICc8aW5maWxlLm1hZT4nLCAnLW9tYWUnLCAnPG91dGZpbGUubWFlPic=

>  <r_lp_tautomer_probability>  (255) 
1

>  <r_epik_Ionization_Penalty>  (255) 
0.00302784

>  <r_epik_Ionization_Penalty_Charging>  (255) 
0.000109865

>  <r_epik_Ionization_Penalty_Neutral>  (255) 
0.00291798

>  <r_epik_State_Penalty>  (255) 
0.0020184

>  <r_epik_Charging_Adjusted_Penalty>  (255) 
0.00212827

>  <i_epik_Tot_Q>  (255) 
0

>  <i_epik_Tot_abs_Q>  (255) 
0

>  <s_lp_Force_Field>  (255) 
OPLS3e

>  <r_lp_Energy>  (255) 
21.8332

>  <b_lp_Chiralities_Consistent>  (255) 
1

>  <s_lp_Variant>  (255) 
90:0-1

>  <s_i_glide_gridfile>  (255) 
pfpi4k_grid

>  <i_i_glide_lignum>  (255) 
9

>  <i_i_glide_rotatable_bonds>  (255) 
2

>  <r_i_docking_score>  (255) 
-3.62557

>  <r_i_glide_ligand_efficiency>  (255) 
-0.226598

>  <r_i_glide_ligand_efficiency_sa>  (255) 
-0.570992

>  <r_i_glide_ligand_efficiency_ln>  (255) 
-0.96103

>  <r_i_glide_gscore>  (255) 
-3.62557

>  <r_i_glide_lipo>  (255) 
-0.445381

>  <r_i_glide_hbond>  (255) 
-0.32

>  <r_i_glide_metal>  (255) 
-0

>  <r_i_glide_rewards>  (255) 
-2.05398

>  <r_i_glide_evdw>  (255) 
-21.5311

>  <r_i_glide_ecoul>  (255) 
-3.12473

>  <r_i_glide_erotb>  (255) 
0.745391

>  <r_i_glide_esite>  (255) 
-0.00634358

>  <r_i_glide_emodel>  (255) 
-30.5869

>  <r_i_glide_energy>  (255) 
-24.6558

>  <r_i_glide_einternal>  (255) 
0.0214743

>  <r_i_glide_intrahb_reward>  (255) 
-0

>  <i_i_glide_confnum>  (255) 
5

>  <i_i_glide_posenum>  (255) 
32

>  <r_i_glide_eff_state_penalty>  (255) 
0

>  <ligand_id>  (255) 
90

>  <original_smiles>  (255) 
c1cc(Cn2cnc3ncncc32)ccn1

>  <smiles>  (255) 
[H]c1nc([H])c2c(n1)nc([H])n2C([H])([H])c1c([H])c([H])nc([H])c1[H]

$$$$
90:0:1
     RDKit          3D

 25 27  0  0  1  0  0  0  0  0999 V2000
    4.1969   -3.2184   -3.8646 C   0  0  0  0  0  0  0  0  0  0  0  0
    4.6257   -3.4558   -2.5452 C   0  0  0  0  0  0  0  0  0  0  0  0
    4.6323   -2.3776   -1.6336 C   0  0  0  0  0  0  0  0  0  0  0  0
    5.1079   -2.5583   -0.2048 C   0  0  0  0  0  0  0  0  0  0  0  0
    4.1384   -3.2516    0.6237 N   0  0  0  0  0  0  0  0  0  0  0  0
    3.1852   -2.7084    1.4111 C   0  0  0  0  0  0  0  0  0  0  0  0
    2.4339   -3.5413    2.1322 N   0  0  0  0  0  0  0  0  0  0  0  0
    2.9367   -4.7721    1.7510 C   0  0  0  0  0  0  0  0  0  0  0  0
    2.5015   -5.9642    2.1756 N   0  0  0  0  0  0  0  0  0  0  0  0
    3.1913   -6.9937    1.6626 C   0  0  0  0  0  0  0  0  0  0  0  0
    4.2129   -6.9753    0.8005 N   0  0  0  0  0  0  0  0  0  0  0  0
    4.6331   -5.7771    0.3491 C   0  0  0  0  0  0  0  0  0  0  0  0
    4.0019   -4.6185    0.8196 C   0  0  0  0  0  0  0  0  0  0  0  0
    4.2185   -1.1113   -2.0966 C   0  0  0  0  0  0  0  0  0  0  0  0
    3.8086   -0.9827   -3.4377 C   0  0  0  0  0  0  0  0  0  0  0  0
    3.8143   -2.0058   -4.3161 N   0  0  0  0  0  0  0  0  0  0  0  0
    4.1924   -4.0197   -4.5898 H   0  0  0  0  0  0  0  0  0  0  0  0
    4.9359   -4.4463   -2.2566 H   0  0  0  0  0  0  0  0  0  0  0  0
    6.0427   -3.1192   -0.1981 H   0  0  0  0  0  0  0  0  0  0  0  0
    5.3162   -1.5875    0.2441 H   0  0  0  0  0  0  0  0  0  0  0  0
    3.0472   -1.6405    1.4833 H   0  0  0  0  0  0  0  0  0  0  0  0
    2.8792   -7.9764    1.9765 H   0  0  0  0  0  0  0  0  0  0  0  0
    5.4509   -5.7455   -0.3541 H   0  0  0  0  0  0  0  0  0  0  0  0
    4.2140   -0.2555   -1.4407 H   0  0  0  0  0  0  0  0  0  0  0  0
    3.4897   -0.0241   -3.8201 H   0  0  0  0  0  0  0  0  0  0  0  0
  1 16  2  0
  1  2  1  0
  1 17  1  0
  2  3  2  0
  2 18  1  0
  3  4  1  0
  3 14  1  0
  4  5  1  0
  4 19  1  0
  4 20  1  0
  5 13  1  0
  5  6  1  0
  6  7  2  0
  6 21  1  0
  7  8  1  0
  8 13  2  0
  8  9  1  0
  9 10  2  0
 10 11  1  0
 10 22  1  0
 11 12  2  0
 12 13  1  0
 12 23  1  0
 14 15  2  0
 14 24  1  0
 15 16  1  0
 15 25  1  0
M  END
>  <i_m_ct_stereo_status>  (256) 
1

>  <s_m_source_file>  (256) 
/var/tmp/pbs.5076255.sched01/tmp7yh4k8o6/114t33l0ocj.sdf

>  <i_m_source_file_index>  (256) 
9

>  <i_lp_mmshare_version>  (256) 
48012

>  <i_f3d_flags>  (256) 
0

>  <s_epik_input>  (256) 
W2NIXTFbY0hdbltjSF1bY0hdYzFbQ0gyXW4oW2NIXW4yKWMoYzIzKVtjSF1uW2NIXW4z

>  <s_epik_cmdline>  (256) 
J2VwaWtfcHl0aG9uJywgJy1waHQnLCAnMi4wJywgJy1waCcsICc3LjAnLCAnLXRuJywgJzgnLCAnLW1hJywgJzIwMCcsICctaW1hZScsICc8aW5maWxlLm1hZT4nLCAnLW9tYWUnLCAnPG91dGZpbGUubWFlPic=

>  <r_lp_tautomer_probability>  (256) 
1

>  <r_epik_Ionization_Penalty>  (256) 
0.00302784

>  <r_epik_Ionization_Penalty_Charging>  (256) 
0.000109865

>  <r_epik_Ionization_Penalty_Neutral>  (256) 
0.00291798

>  <r_epik_State_Penalty>  (256) 
0.0020184

>  <r_epik_Charging_Adjusted_Penalty>  (256) 
0.00212827

>  <i_epik_Tot_Q>  (256) 
0

>  <i_epik_Tot_abs_Q>  (256) 
0

>  <s_lp_Force_Field>  (256) 
OPLS3e

>  <r_lp_Energy>  (256) 
21.8332

>  <b_lp_Chiralities_Consistent>  (256) 
1

>  <s_lp_Variant>  (256) 
90:0-1

>  <s_i_glide_gridfile>  (256) 
pfpi4k_grid

>  <i_i_glide_lignum>  (256) 
9

>  <i_i_glide_rotatable_bonds>  (256) 
2

>  <r_i_docking_score>  (256) 
-3.60877

>  <r_i_glide_ligand_efficiency>  (256) 
-0.225548

>  <r_i_glide_ligand_efficiency_sa>  (256) 
-0.568346

>  <r_i_glide_ligand_efficiency_ln>  (256) 
-0.956578

>  <r_i_glide_gscore>  (256) 
-3.60877

>  <r_i_glide_lipo>  (256) 
-0.429977

>  <r_i_glide_hbond>  (256) 
-0.32

>  <r_i_glide_metal>  (256) 
-0

>  <r_i_glide_rewards>  (256) 
-2.05371

>  <r_i_glide_evdw>  (256) 
-22.4203

>  <r_i_glide_ecoul>  (256) 
-2.77381

>  <r_i_glide_erotb>  (256) 
0.745391

>  <r_i_glide_esite>  (256) 
-0.0133873

>  <r_i_glide_emodel>  (256) 
-31.0081

>  <r_i_glide_energy>  (256) 
-25.1941

>  <r_i_glide_einternal>  (256) 
0.169981

>  <r_i_glide_intrahb_reward>  (256) 
-0

>  <i_i_glide_confnum>  (256) 
5

>  <i_i_glide_posenum>  (256) 
3

>  <r_i_glide_eff_state_penalty>  (256) 
0

>  <ligand_id>  (256) 
90

>  <original_smiles>  (256) 
c1cc(Cn2cnc3ncncc32)ccn1

>  <smiles>  (256) 
[H]c1nc([H])c2c(n1)nc([H])n2C([H])([H])c1c([H])c([H])nc([H])c1[H]

$$$$
90:0:2
     RDKit          3D

 25 27  0  0  1  0  0  0  0  0999 V2000
    4.0318   -0.7819   -3.0268 C   0  0  0  0  0  0  0  0  0  0  0  0
    4.7461   -1.2319   -1.8971 C   0  0  0  0  0  0  0  0  0  0  0  0
    5.0450   -2.6063   -1.7927 C   0  0  0  0  0  0  0  0  0  0  0  0
    5.8397   -3.1665   -0.6263 C   0  0  0  0  0  0  0  0  0  0  0  0
    5.1373   -3.0624    0.6406 N   0  0  0  0  0  0  0  0  0  0  0  0
    5.3934   -2.2121    1.6559 C   0  0  0  0  0  0  0  0  0  0  0  0
    4.6454   -2.3205    2.7532 N   0  0  0  0  0  0  0  0  0  0  0  0
    3.7941   -3.3560    2.4097 C   0  0  0  0  0  0  0  0  0  0  0  0
    2.8323   -3.8712    3.1840 N   0  0  0  0  0  0  0  0  0  0  0  0
    2.1682   -4.8803    2.6053 C   0  0  0  0  0  0  0  0  0  0  0  0
    2.3308   -5.4126    1.3877 N   0  0  0  0  0  0  0  0  0  0  0  0
    3.3074   -4.9021    0.6077 C   0  0  0  0  0  0  0  0  0  0  0  0
    4.0792   -3.8384    1.1005 C   0  0  0  0  0  0  0  0  0  0  0  0
    4.6128   -3.4597   -2.8245 C   0  0  0  0  0  0  0  0  0  0  0  0
    3.8990   -2.9133   -3.9050 C   0  0  0  0  0  0  0  0  0  0  0  0
    3.6385   -1.5965   -4.0284 N   0  0  0  0  0  0  0  0  0  0  0  0
    3.7917    0.2647   -3.1470 H   0  0  0  0  0  0  0  0  0  0  0  0
    5.0479   -0.5272   -1.1361 H   0  0  0  0  0  0  0  0  0  0  0  0
    6.0661   -4.2193   -0.8001 H   0  0  0  0  0  0  0  0  0  0  0  0
    6.7962   -2.6493   -0.5513 H   0  0  0  0  0  0  0  0  0  0  0  0
    6.1875   -1.4847    1.5976 H   0  0  0  0  0  0  0  0  0  0  0  0
    1.3723   -5.3146    3.1924 H   0  0  0  0  0  0  0  0  0  0  0  0
    3.4738   -5.3328   -0.3685 H   0  0  0  0  0  0  0  0  0  0  0  0
    4.8127   -4.5203   -2.7943 H   0  0  0  0  0  0  0  0  0  0  0  0
    3.5614   -3.5450   -4.7144 H   0  0  0  0  0  0  0  0  0  0  0  0
  1 16  2  0
  1  2  1  0
  1 17  1  0
  2  3  2  0
  2 18  1  0
  3  4  1  0
  3 14  1  0
  4  5  1  0
  4 19  1  0
  4 20  1  0
  5 13  1  0
  5  6  1  0
  6  7  2  0
  6 21  1  0
  7  8  1  0
  8 13  2  0
  8  9  1  0
  9 10  2  0
 10 11  1  0
 10 22  1  0
 11 12  2  0
 12 13  1  0
 12 23  1  0
 14 15  2  0
 14 24  1  0
 15 16  1  0
 15 25  1  0
M  END
>  <i_m_ct_stereo_status>  (257) 
1

>  <s_m_source_file>  (257) 
/var/tmp/pbs.5076255.sched01/tmp7yh4k8o6/114t33l0ocj.sdf

>  <i_m_source_file_index>  (257) 
9

>  <i_lp_mmshare_version>  (257) 
48012

>  <i_f3d_flags>  (257) 
0

>  <s_epik_input>  (257) 
W2NIXTFbY0hdbltjSF1bY0hdYzFbQ0gyXW4oW2NIXW4yKWMoYzIzKVtjSF1uW2NIXW4z

>  <s_epik_cmdline>  (257) 
J2VwaWtfcHl0aG9uJywgJy1waHQnLCAnMi4wJywgJy1waCcsICc3LjAnLCAnLXRuJywgJzgnLCAnLW1hJywgJzIwMCcsICctaW1hZScsICc8aW5maWxlLm1hZT4nLCAnLW9tYWUnLCAnPG91dGZpbGUubWFlPic=

>  <r_lp_tautomer_probability>  (257) 
1

>  <r_epik_Ionization_Penalty>  (257) 
0.00302784

>  <r_epik_Ionization_Penalty_Charging>  (257) 
0.000109865

>  <r_epik_Ionization_Penalty_Neutral>  (257) 
0.00291798

>  <r_epik_State_Penalty>  (257) 
0.0020184

>  <r_epik_Charging_Adjusted_Penalty>  (257) 
0.00212827

>  <i_epik_Tot_Q>  (257) 
0

>  <i_epik_Tot_abs_Q>  (257) 
0

>  <s_lp_Force_Field>  (257) 
OPLS3e

>  <r_lp_Energy>  (257) 
21.8332

>  <b_lp_Chiralities_Consistent>  (257) 
1

>  <s_lp_Variant>  (257) 
90:0-1

>  <s_i_glide_gridfile>  (257) 
pfpi4k_grid

>  <i_i_glide_lignum>  (257) 
9

>  <i_i_glide_rotatable_bonds>  (257) 
2

>  <r_i_docking_score>  (257) 
-3.29514

>  <r_i_glide_ligand_efficiency>  (257) 
-0.205946

>  <r_i_glide_ligand_efficiency_sa>  (257) 
-0.518952

>  <r_i_glide_ligand_efficiency_ln>  (257) 
-0.873442

>  <r_i_glide_gscore>  (257) 
-3.29514

>  <r_i_glide_lipo>  (257) 
-0.325433

>  <r_i_glide_hbond>  (257) 
-0.0789985

>  <r_i_glide_metal>  (257) 
-0

>  <r_i_glide_rewards>  (257) 
-2.1104

>  <r_i_glide_evdw>  (257) 
-22.2975

>  <r_i_glide_ecoul>  (257) 
-2.67076

>  <r_i_glide_erotb>  (257) 
0.745391

>  <r_i_glide_esite>  (257) 
-0.010205

>  <r_i_glide_emodel>  (257) 
-30.3182

>  <r_i_glide_energy>  (257) 
-24.9683

>  <r_i_glide_einternal>  (257) 
0.0719536

>  <r_i_glide_intrahb_reward>  (257) 
-0

>  <i_i_glide_confnum>  (257) 
6

>  <i_i_glide_posenum>  (257) 
37

>  <r_i_glide_eff_state_penalty>  (257) 
0

>  <ligand_id>  (257) 
90

>  <original_smiles>  (257) 
c1cc(Cn2cnc3ncncc32)ccn1

>  <smiles>  (257) 
[H]c1nc([H])c2c(n1)nc([H])n2C([H])([H])c1c([H])c([H])nc([H])c1[H]

$$$$
91:0:0
     RDKit          3D

 37 41  0  0  1  0  0  0  0  0999 V2000
    7.8901   -2.2568   -1.8991 O   0  0  0  0  0  0  0  0  0  0  0  0
    7.0030   -3.0629   -1.6936 C   0  0  0  0  0  0  0  0  0  0  0  0
    6.2200   -3.1403   -0.4014 C   0  0  2  0  0  0  0  0  0  0  0  0
    6.3260   -4.3504    0.4561 C   0  0  1  0  0  0  0  0  0  0  0  0
    6.1128   -3.7300    1.8821 C   0  0  0  0  0  0  0  0  0  0  0  0
    4.8142   -2.8217    2.0049 C   0  0  1  0  0  0  0  0  0  0  0  0
    4.5804   -1.3756    1.3599 C   0  0  0  0  0  0  0  0  0  0  0  0
    3.4113   -1.5681    0.2737 C   0  0  2  0  0  0  0  0  0  0  0  0
    2.6598   -2.5982    1.0523 C   0  0  0  0  0  0  0  0  0  0  0  0
    3.8695   -3.4980    1.0868 C   0  0  1  0  0  0  0  0  0  0  0  0
    4.6521   -3.4432   -0.2910 C   0  0  2  0  0  0  0  0  0  0  0  0
    5.1464   -4.8636   -0.4877 C   0  0  0  0  0  0  0  0  0  0  0  0
    3.8005   -2.4007   -1.0060 C   0  0  1  0  0  0  0  0  0  0  0  0
    2.6877   -3.0573   -1.8760 C   0  0  0  0  0  0  0  0  0  0  0  0
    2.7731   -2.4616   -3.2689 C   0  0  0  0  0  0  0  0  0  0  0  0
    4.0040   -1.5975   -3.2079 C   0  0  0  0  0  0  0  0  0  0  0  0
    4.4886   -1.0734   -4.2015 O   0  0  0  0  0  0  0  0  0  0  0  0
    4.4975   -1.5500   -1.9685 N   0  0  0  0  0  0  0  0  0  0  0  0
    6.7444   -3.7706   -2.4864 H   0  0  0  0  0  0  0  0  0  0  0  0
    6.5370   -2.2724    0.1587 H   0  0  0  0  0  0  0  0  0  0  0  0
    7.2596   -4.9079    0.3469 H   0  0  0  0  0  0  0  0  0  0  0  0
    6.0803   -4.5194    2.6328 H   0  0  0  0  0  0  0  0  0  0  0  0
    6.9773   -3.1063    2.0916 H   0  0  0  0  0  0  0  0  0  0  0  0
    4.4412   -2.8259    3.0298 H   0  0  0  0  0  0  0  0  0  0  0  0
    4.2114   -0.7158    2.1421 H   0  0  0  0  0  0  0  0  0  0  0  0
    5.4676   -0.8705    0.9754 H   0  0  0  0  0  0  0  0  0  0  0  0
    2.8597   -0.6562    0.0585 H   0  0  0  0  0  0  0  0  0  0  0  0
    2.3230   -2.2517    2.0307 H   0  0  0  0  0  0  0  0  0  0  0  0
    1.8165   -3.0603    0.5445 H   0  0  0  0  0  0  0  0  0  0  0  0
    3.6065   -4.4953    1.4445 H   0  0  0  0  0  0  0  0  0  0  0  0
    5.4172   -5.1298   -1.5111 H   0  0  0  0  0  0  0  0  0  0  0  0
    4.5406   -5.6596   -0.0478 H   0  0  0  0  0  0  0  0  0  0  0  0
    2.8561   -4.1316   -1.9288 H   0  0  0  0  0  0  0  0  0  0  0  0
    1.6692   -2.9330   -1.5267 H   0  0  0  0  0  0  0  0  0  0  0  0
    2.8101   -3.2010   -4.0690 H   0  0  0  0  0  0  0  0  0  0  0  0
    1.9120   -1.8308   -3.4399 H   0  0  0  0  0  0  0  0  0  0  0  0
    5.3917   -1.1362   -1.7553 H   0  0  0  0  0  0  0  0  0  0  0  0
  1  2  2  0
  2  3  1  0
  2 19  1  0
  3 11  1  0
  3  4  1  0
  3 20  1  1
  4 12  1  0
  4  5  1  0
  4 21  1  1
  5  6  1  0
  5 22  1  0
  5 23  1  0
  6 10  1  0
  6  7  1  0
  6 24  1  1
  7  8  1  0
  7 25  1  0
  7 26  1  0
  8 13  1  0
  8  9  1  0
  8 27  1  6
  9 10  1  0
  9 28  1  0
  9 29  1  0
 10 11  1  0
 10 30  1  1
 11 12  1  6
 11 13  1  0
 12 31  1  0
 12 32  1  0
 13 18  1  6
 13 14  1  0
 14 15  1  0
 14 33  1  0
 14 34  1  0
 15 16  1  0
 15 35  1  0
 15 36  1  0
 16 17  2  0
 16 18  1  0
 18 37  1  0
M  END
>  <i_m_ct_stereo_status>  (258) 
1

>  <s_m_source_file>  (258) 
/var/tmp/pbs.5076255.sched01/tmp7yh4k8o6/114t33l0ocj.sdf

>  <i_m_source_file_index>  (258) 
10

>  <i_lp_mmshare_version>  (258) 
48012

>  <i_f3d_flags>  (258) 
0

>  <s_epik_input>  (258) 
Tz1bQ0hdW0NAQEhdMVtDQEhdKFtDSDJdMilbQ0gyXVtDQEhdKFtDQEhdM1tDSDJdNClbQ0gyXVtDQEhdNFtDQEBdNShbQ0BdMTIzKVtDSDJdW0NIMl1DKD1PKVtOSF01

>  <s_epik_cmdline>  (258) 
J2VwaWtfcHl0aG9uJywgJy1waHQnLCAnMi4wJywgJy1waCcsICc3LjAnLCAnLXRuJywgJzgnLCAnLW1hJywgJzIwMCcsICctaW1hZScsICc8aW5maWxlLm1hZT4nLCAnLW9tYWUnLCAnPG91dGZpbGUubWFlPic=

>  <r_lp_tautomer_probability>  (258) 
1

>  <r_epik_Ionization_Penalty>  (258) 
1.96945e-07

>  <r_epik_Ionization_Penalty_Charging>  (258) 
0

>  <r_epik_Ionization_Penalty_Neutral>  (258) 
1.96945e-07

>  <r_epik_State_Penalty>  (258) 
-0

>  <r_epik_Charging_Adjusted_Penalty>  (258) 
0

>  <i_epik_Tot_Q>  (258) 
0

>  <i_epik_Tot_abs_Q>  (258) 
0

>  <s_lp_Force_Field>  (258) 
OPLS3e

>  <r_lp_Energy>  (258) 
116.19

>  <b_lp_Chiralities_Consistent>  (258) 
1

>  <s_lp_Variant>  (258) 
91:0-1

>  <s_i_glide_gridfile>  (258) 
pfpi4k_grid

>  <i_i_glide_lignum>  (258) 
10

>  <i_i_glide_rotatable_bonds>  (258) 
1

>  <r_i_docking_score>  (258) 
-4.17144

>  <r_i_glide_ligand_efficiency>  (258) 
-0.231747

>  <r_i_glide_ligand_efficiency_sa>  (258) 
-0.607348

>  <r_i_glide_ligand_efficiency_ln>  (258) 
-1.07225

>  <r_i_glide_gscore>  (258) 
-4.17144

>  <r_i_glide_lipo>  (258) 
-0.464237

>  <r_i_glide_hbond>  (258) 
-0.208732

>  <r_i_glide_metal>  (258) 
-0

>  <r_i_glide_rewards>  (258) 
-1.87565

>  <r_i_glide_evdw>  (258) 
-17.3214

>  <r_i_glide_ecoul>  (258) 
-4.79713

>  <r_i_glide_erotb>  (258) 
0

>  <r_i_glide_esite>  (258) 
-0.037178

>  <r_i_glide_emodel>  (258) 
-27.5895

>  <r_i_glide_energy>  (258) 
-22.1186

>  <r_i_glide_einternal>  (258) 
0.0707256

>  <r_i_glide_intrahb_reward>  (258) 
-0

>  <i_i_glide_confnum>  (258) 
2

>  <i_i_glide_posenum>  (258) 
1

>  <r_i_glide_eff_state_penalty>  (258) 
0

>  <ligand_id>  (258) 
91

>  <original_smiles>  (258) 
O=CC1C2CC3CC4CC3C1(C2)C41CCC(=O)N1

>  <smiles>  (258) 
[H]C(=O)C1([H])C2([H])C([H])([H])C3([H])C([H])([H])C4([H])C([H])([H])C3([H])C1(C2([H])[H])C41N([H])C(=O)C([H])([H])C1([H])[H]

$$$$
91:0:1
     RDKit          3D

 37 41  0  0  1  0  0  0  0  0999 V2000
    4.1885   -6.7930    0.3031 O   0  0  0  0  0  0  0  0  0  0  0  0
    4.6693   -5.7344   -0.1027 C   0  0  0  0  0  0  0  0  0  0  0  0
    4.8592   -4.4777    0.6796 C   0  0  2  0  0  0  0  0  0  0  0  0
    4.1266   -4.3390    1.9673 C   0  0  1  0  0  0  0  0  0  0  0  0
    5.0408   -3.4360    2.8390 C   0  0  0  0  0  0  0  0  0  0  0  0
    5.4808   -2.0959    2.1133 C   0  0  1  0  0  0  0  0  0  0  0  0
    6.4855   -1.9385    0.8765 C   0  0  0  0  0  0  0  0  0  0  0  0
    5.6046   -1.3832   -0.3412 C   0  0  2  0  0  0  0  0  0  0  0  0
    4.6963   -0.5443    0.5189 C   0  0  0  0  0  0  0  0  0  0  0  0
    4.2865   -1.7707    1.3085 C   0  0  1  0  0  0  0  0  0  0  0  0
    4.1447   -3.0606    0.3885 C   0  0  2  0  0  0  0  0  0  0  0  0
    2.9742   -3.8150    0.9888 C   0  0  0  0  0  0  0  0  0  0  0  0
    4.5891   -2.4255   -0.9311 C   0  0  1  0  0  0  0  0  0  0  0  0
    3.4140   -1.8627   -1.8006 C   0  0  0  0  0  0  0  0  0  0  0  0
    3.5403   -2.4104   -3.2217 C   0  0  0  0  0  0  0  0  0  0  0  0
    4.6878   -3.3868   -3.0951 C   0  0  0  0  0  0  0  0  0  0  0  0
    5.0176   -4.1224   -4.0209 O   0  0  0  0  0  0  0  0  0  0  0  0
    5.2752   -3.2804   -1.9009 N   0  0  0  0  0  0  0  0  0  0  0  0
    5.0578   -5.7263   -1.1338 H   0  0  0  0  0  0  0  0  0  0  0  0
    5.9208   -4.3853    0.8793 H   0  0  0  0  0  0  0  0  0  0  0  0
    3.8696   -5.3125    2.4193 H   0  0  0  0  0  0  0  0  0  0  0  0
    4.5330   -3.1886    3.7762 H   0  0  0  0  0  0  0  0  0  0  0  0
    5.9354   -3.9912    3.1466 H   0  0  0  0  0  0  0  0  0  0  0  0
    5.7067   -1.3221    2.8588 H   0  0  0  0  0  0  0  0  0  0  0  0
    7.2188   -1.1708    1.1555 H   0  0  0  0  0  0  0  0  0  0  0  0
    7.0961   -2.8112    0.6324 H   0  0  0  0  0  0  0  0  0  0  0  0
    6.1609   -0.8215   -1.0906 H   0  0  0  0  0  0  0  0  0  0  0  0
    5.2432    0.1938    1.1191 H   0  0  0  0  0  0  0  0  0  0  0  0
    3.8515   -0.0528    0.0496 H   0  0  0  0  0  0  0  0  0  0  0  0
    3.4323   -1.5476    1.9405 H   0  0  0  0  0  0  0  0  0  0  0  0
    2.4828   -4.5326    0.3256 H   0  0  0  0  0  0  0  0  0  0  0  0
    2.2086   -3.2105    1.4780 H   0  0  0  0  0  0  0  0  0  0  0  0
    2.4826   -2.2745   -1.3938 H   0  0  0  0  0  0  0  0  0  0  0  0
    3.3088   -0.7822   -1.8937 H   0  0  0  0  0  0  0  0  0  0  0  0
    2.6292   -2.9335   -3.5511 H   0  0  0  0  0  0  0  0  0  0  0  0
    3.7924   -1.6169   -3.9442 H   0  0  0  0  0  0  0  0  0  0  0  0
    6.0226   -3.9079   -1.6252 H   0  0  0  0  0  0  0  0  0  0  0  0
  1  2  2  0
  2  3  1  0
  2 19  1  0
  3 11  1  0
  3  4  1  0
  3 20  1  1
  4 12  1  0
  4  5  1  0
  4 21  1  1
  5  6  1  0
  5 22  1  0
  5 23  1  0
  6 10  1  0
  6  7  1  0
  6 24  1  1
  7  8  1  0
  7 25  1  0
  7 26  1  0
  8 13  1  0
  8  9  1  0
  8 27  1  6
  9 10  1  0
  9 28  1  0
  9 29  1  0
 10 11  1  0
 10 30  1  1
 11 12  1  6
 11 13  1  0
 12 31  1  0
 12 32  1  0
 13 18  1  6
 13 14  1  0
 14 15  1  0
 14 33  1  0
 14 34  1  0
 15 16  1  0
 15 35  1  0
 15 36  1  0
 16 17  2  0
 16 18  1  0
 18 37  1  0
M  END
>  <i_m_ct_stereo_status>  (259) 
1

>  <s_m_source_file>  (259) 
/var/tmp/pbs.5076255.sched01/tmp7yh4k8o6/114t33l0ocj.sdf

>  <i_m_source_file_index>  (259) 
10

>  <i_lp_mmshare_version>  (259) 
48012

>  <i_f3d_flags>  (259) 
0

>  <s_epik_input>  (259) 
Tz1bQ0hdW0NAQEhdMVtDQEhdKFtDSDJdMilbQ0gyXVtDQEhdKFtDQEhdM1tDSDJdNClbQ0gyXVtDQEhdNFtDQEBdNShbQ0BdMTIzKVtDSDJdW0NIMl1DKD1PKVtOSF01

>  <s_epik_cmdline>  (259) 
J2VwaWtfcHl0aG9uJywgJy1waHQnLCAnMi4wJywgJy1waCcsICc3LjAnLCAnLXRuJywgJzgnLCAnLW1hJywgJzIwMCcsICctaW1hZScsICc8aW5maWxlLm1hZT4nLCAnLW9tYWUnLCAnPG91dGZpbGUubWFlPic=

>  <r_lp_tautomer_probability>  (259) 
1

>  <r_epik_Ionization_Penalty>  (259) 
1.96945e-07

>  <r_epik_Ionization_Penalty_Charging>  (259) 
0

>  <r_epik_Ionization_Penalty_Neutral>  (259) 
1.96945e-07

>  <r_epik_State_Penalty>  (259) 
-0

>  <r_epik_Charging_Adjusted_Penalty>  (259) 
0

>  <i_epik_Tot_Q>  (259) 
0

>  <i_epik_Tot_abs_Q>  (259) 
0

>  <s_lp_Force_Field>  (259) 
OPLS3e

>  <r_lp_Energy>  (259) 
116.19

>  <b_lp_Chiralities_Consistent>  (259) 
1

>  <s_lp_Variant>  (259) 
91:0-1

>  <s_i_glide_gridfile>  (259) 
pfpi4k_grid

>  <i_i_glide_lignum>  (259) 
10

>  <i_i_glide_rotatable_bonds>  (259) 
1

>  <r_i_docking_score>  (259) 
-3.85543

>  <r_i_glide_ligand_efficiency>  (259) 
-0.214191

>  <r_i_glide_ligand_efficiency_sa>  (259) 
-0.561339

>  <r_i_glide_ligand_efficiency_ln>  (259) 
-0.991019

>  <r_i_glide_gscore>  (259) 
-3.85543

>  <r_i_glide_lipo>  (259) 
-0.509516

>  <r_i_glide_hbond>  (259) 
0

>  <r_i_glide_metal>  (259) 
-0

>  <r_i_glide_rewards>  (259) 
-1.94269

>  <r_i_glide_evdw>  (259) 
-23.6071

>  <r_i_glide_ecoul>  (259) 
-1.47764

>  <r_i_glide_erotb>  (259) 
0

>  <r_i_glide_esite>  (259) 
-0.00122385

>  <r_i_glide_emodel>  (259) 
-29.9979

>  <r_i_glide_energy>  (259) 
-25.0847

>  <r_i_glide_einternal>  (259) 
0.503222

>  <r_i_glide_intrahb_reward>  (259) 
-0

>  <i_i_glide_confnum>  (259) 
1

>  <i_i_glide_posenum>  (259) 
2

>  <r_i_glide_eff_state_penalty>  (259) 
0

>  <ligand_id>  (259) 
91

>  <original_smiles>  (259) 
O=CC1C2CC3CC4CC3C1(C2)C41CCC(=O)N1

>  <smiles>  (259) 
[H]C(=O)C1([H])C2([H])C([H])([H])C3([H])C([H])([H])C4([H])C([H])([H])C3([H])C1(C2([H])[H])C41N([H])C(=O)C([H])([H])C1([H])[H]

$$$$
91:0:2
     RDKit          3D

 37 41  0  0  1  0  0  0  0  0999 V2000
    7.2041   -4.6348    1.2632 O   0  0  0  0  0  0  0  0  0  0  0  0
    5.9797   -4.7041    1.3141 C   0  0  0  0  0  0  0  0  0  0  0  0
    5.0882   -3.6980    2.0455 C   0  0  2  0  0  0  0  0  0  0  0  0
    3.9122   -4.1936    2.7997 C   0  0  1  0  0  0  0  0  0  0  0  0
    3.7418   -3.1263    3.9484 C   0  0  0  0  0  0  0  0  0  0  0  0
    3.7190   -1.6273    3.4213 C   0  0  1  0  0  0  0  0  0  0  0  0
    4.9392   -0.7952    2.8171 C   0  0  0  0  0  0  0  0  0  0  0  0
    4.5684   -0.5118    1.2838 C   0  0  2  0  0  0  0  0  0  0  0  0
    3.0947   -0.3595    1.5090 C   0  0  0  0  0  0  0  0  0  0  0  0
    3.0313   -1.7561    2.1159 C   0  0  1  0  0  0  0  0  0  0  0  0
    3.9790   -2.7700    1.3399 C   0  0  2  0  0  0  0  0  0  0  0  0
    3.2226   -4.0905    1.3590 C   0  0  0  0  0  0  0  0  0  0  0  0
    4.5863   -1.7818    0.3431 C   0  0  1  0  0  0  0  0  0  0  0  0
    3.8198   -1.7272   -1.0148 C   0  0  0  0  0  0  0  0  0  0  0  0
    4.8558   -1.8952   -2.1283 C   0  0  0  0  0  0  0  0  0  0  0  0
    6.1214   -2.2417   -1.3762 C   0  0  0  0  0  0  0  0  0  0  0  0
    7.1651   -2.5699   -1.9216 O   0  0  0  0  0  0  0  0  0  0  0  0
    5.9558   -2.0694   -0.0624 N   0  0  0  0  0  0  0  0  0  0  0  0
    5.4883   -5.5376    0.8118 H   0  0  0  0  0  0  0  0  0  0  0  0
    5.7324   -3.1656    2.7291 H   0  0  0  0  0  0  0  0  0  0  0  0
    4.0029   -5.2252    3.1451 H   0  0  0  0  0  0  0  0  0  0  0  0
    2.8200   -3.3283    4.4987 H   0  0  0  0  0  0  0  0  0  0  0  0
    4.5417   -3.2323    4.6845 H   0  0  0  0  0  0  0  0  0  0  0  0
    3.1539   -0.9987    4.1109 H   0  0  0  0  0  0  0  0  0  0  0  0
    4.9808    0.1616    3.3452 H   0  0  0  0  0  0  0  0  0  0  0  0
    5.9327   -1.2160    2.9594 H   0  0  0  0  0  0  0  0  0  0  0  0
    5.0540    0.3663    0.8507 H   0  0  0  0  0  0  0  0  0  0  0  0
    2.8451    0.4376    2.2162 H   0  0  0  0  0  0  0  0  0  0  0  0
    2.4714   -0.2392    0.6269 H   0  0  0  0  0  0  0  0  0  0  0  0
    1.9965   -2.0762    2.2317 H   0  0  0  0  0  0  0  0  0  0  0  0
    3.5105   -4.8186    0.5979 H   0  0  0  0  0  0  0  0  0  0  0  0
    2.1380   -4.0121    1.3754 H   0  0  0  0  0  0  0  0  0  0  0  0
    3.1027   -2.5509   -1.0763 H   0  0  0  0  0  0  0  0  0  0  0  0
    3.2728   -0.8090   -1.2138 H   0  0  0  0  0  0  0  0  0  0  0  0
    4.5888   -2.6809   -2.8392 H   0  0  0  0  0  0  0  0  0  0  0  0
    4.9989   -0.9535   -2.6686 H   0  0  0  0  0  0  0  0  0  0  0  0
    6.6630   -2.3491    0.5962 H   0  0  0  0  0  0  0  0  0  0  0  0
  1  2  2  0
  2  3  1  0
  2 19  1  0
  3 11  1  0
  3  4  1  0
  3 20  1  1
  4 12  1  0
  4  5  1  0
  4 21  1  1
  5  6  1  0
  5 22  1  0
  5 23  1  0
  6 10  1  0
  6  7  1  0
  6 24  1  1
  7  8  1  0
  7 25  1  0
  7 26  1  0
  8 13  1  0
  8  9  1  0
  8 27  1  6
  9 10  1  0
  9 28  1  0
  9 29  1  0
 10 11  1  0
 10 30  1  1
 11 12  1  6
 11 13  1  0
 12 31  1  0
 12 32  1  0
 13 18  1  6
 13 14  1  0
 14 15  1  0
 14 33  1  0
 14 34  1  0
 15 16  1  0
 15 35  1  0
 15 36  1  0
 16 17  2  0
 16 18  1  0
 18 37  1  0
M  END
>  <i_m_ct_stereo_status>  (260) 
1

>  <s_m_source_file>  (260) 
/var/tmp/pbs.5076255.sched01/tmp7yh4k8o6/114t33l0ocj.sdf

>  <i_m_source_file_index>  (260) 
10

>  <i_lp_mmshare_version>  (260) 
48012

>  <i_f3d_flags>  (260) 
0

>  <s_epik_input>  (260) 
Tz1bQ0hdW0NAQEhdMVtDQEhdKFtDSDJdMilbQ0gyXVtDQEhdKFtDQEhdM1tDSDJdNClbQ0gyXVtDQEhdNFtDQEBdNShbQ0BdMTIzKVtDSDJdW0NIMl1DKD1PKVtOSF01

>  <s_epik_cmdline>  (260) 
J2VwaWtfcHl0aG9uJywgJy1waHQnLCAnMi4wJywgJy1waCcsICc3LjAnLCAnLXRuJywgJzgnLCAnLW1hJywgJzIwMCcsICctaW1hZScsICc8aW5maWxlLm1hZT4nLCAnLW9tYWUnLCAnPG91dGZpbGUubWFlPic=

>  <r_lp_tautomer_probability>  (260) 
1

>  <r_epik_Ionization_Penalty>  (260) 
1.96945e-07

>  <r_epik_Ionization_Penalty_Charging>  (260) 
0

>  <r_epik_Ionization_Penalty_Neutral>  (260) 
1.96945e-07

>  <r_epik_State_Penalty>  (260) 
-0

>  <r_epik_Charging_Adjusted_Penalty>  (260) 
0

>  <i_epik_Tot_Q>  (260) 
0

>  <i_epik_Tot_abs_Q>  (260) 
0

>  <s_lp_Force_Field>  (260) 
OPLS3e

>  <r_lp_Energy>  (260) 
116.19

>  <b_lp_Chiralities_Consistent>  (260) 
1

>  <s_lp_Variant>  (260) 
91:0-1

>  <s_i_glide_gridfile>  (260) 
pfpi4k_grid

>  <i_i_glide_lignum>  (260) 
10

>  <i_i_glide_rotatable_bonds>  (260) 
1

>  <r_i_docking_score>  (260) 
-3.60391

>  <r_i_glide_ligand_efficiency>  (260) 
-0.200217

>  <r_i_glide_ligand_efficiency_sa>  (260) 
-0.524718

>  <r_i_glide_ligand_efficiency_ln>  (260) 
-0.926367

>  <r_i_glide_gscore>  (260) 
-3.60391

>  <r_i_glide_lipo>  (260) 
-0.276311

>  <r_i_glide_hbond>  (260) 
-0.15314

>  <r_i_glide_metal>  (260) 
-0

>  <r_i_glide_rewards>  (260) 
-1.84047

>  <r_i_glide_evdw>  (260) 
-21.2612

>  <r_i_glide_ecoul>  (260) 
-1.46562

>  <r_i_glide_erotb>  (260) 
0

>  <r_i_glide_esite>  (260) 
-0.0510842

>  <r_i_glide_emodel>  (260) 
-27.5507

>  <r_i_glide_energy>  (260) 
-22.7268

>  <r_i_glide_einternal>  (260) 
0.203367

>  <r_i_glide_intrahb_reward>  (260) 
-0

>  <i_i_glide_confnum>  (260) 
2

>  <i_i_glide_posenum>  (260) 
26

>  <r_i_glide_eff_state_penalty>  (260) 
0

>  <ligand_id>  (260) 
91

>  <original_smiles>  (260) 
O=CC1C2CC3CC4CC3C1(C2)C41CCC(=O)N1

>  <smiles>  (260) 
[H]C(=O)C1([H])C2([H])C([H])([H])C3([H])C([H])([H])C4([H])C([H])([H])C3([H])C1(C2([H])[H])C41N([H])C(=O)C([H])([H])C1([H])[H]

$$$$
92:0:0
     RDKit          3D

 35 39  0  0  1  0  0  0  0  0999 V2000
    3.0129   -1.0214   -4.2346 C   0  0  0  0  0  0  0  0  0  0  0  0
    3.8730   -0.1687   -3.5269 C   0  0  0  0  0  0  0  0  0  0  0  0
    4.6090   -0.6537   -2.4241 C   0  0  0  0  0  0  0  0  0  0  0  0
    4.4647   -1.9909   -2.0041 C   0  0  0  0  0  0  0  0  0  0  0  0
    5.2873   -2.5091   -0.8583 C   0  0  1  0  0  0  0  0  0  0  0  0
    4.8454   -2.0278    0.5057 C   0  0  0  0  0  0  0  0  0  0  0  0
    5.2145   -3.0832    1.3973 O   0  0  0  0  0  0  0  0  0  0  0  0
    5.3303   -4.3025    0.7262 C   0  0  1  0  0  0  0  0  0  0  0  0
    4.0177   -5.0237    0.8153 N   0  0  0  0  0  0  0  0  0  0  0  0
    2.8288   -4.6564    0.3054 C   0  0  0  0  0  0  0  0  0  0  0  0
    1.7872   -5.4665    0.4911 N   0  0  0  0  0  0  0  0  0  0  0  0
    2.3624   -6.4765    1.2382 C   0  0  0  0  0  0  0  0  0  0  0  0
    1.7153   -7.5534    1.6901 N   0  0  0  0  0  0  0  0  0  0  0  0
    2.5113   -8.3993    2.3586 C   0  0  0  0  0  0  0  0  0  0  0  0
    3.8184   -8.2883    2.6182 N   0  0  0  0  0  0  0  0  0  0  0  0
    4.4701   -7.1980    2.1680 C   0  0  0  0  0  0  0  0  0  0  0  0
    3.7505   -6.2304    1.4428 C   0  0  0  0  0  0  0  0  0  0  0  0
    5.6050   -3.9595   -0.7086 C   0  0  2  0  0  0  0  0  0  0  0  0
    6.6930   -2.9943   -1.1131 C   0  0  0  0  0  0  0  0  0  0  0  0
    3.5677   -2.8275   -2.7032 C   0  0  0  0  0  0  0  0  0  0  0  0
    2.8547   -2.3546   -3.8132 C   0  0  0  0  0  0  0  0  0  0  0  0
    2.4470   -0.6476   -5.0716 H   0  0  0  0  0  0  0  0  0  0  0  0
    3.9862    0.8553   -3.8402 H   0  0  0  0  0  0  0  0  0  0  0  0
    5.2852    0.0074   -1.9115 H   0  0  0  0  0  0  0  0  0  0  0  0
    5.3519   -1.1041    0.7810 H   0  0  0  0  0  0  0  0  0  0  0  0
    3.7680   -1.8661    0.5521 H   0  0  0  0  0  0  0  0  0  0  0  0
    6.0642   -4.9536    1.1910 H   0  0  0  0  0  0  0  0  0  0  0  0
    2.7005   -3.7476   -0.2576 H   0  0  0  0  0  0  0  0  0  0  0  0
    2.0276   -9.2771    2.7500 H   0  0  0  0  0  0  0  0  0  0  0  0
    5.5289   -7.1166    2.3687 H   0  0  0  0  0  0  0  0  0  0  0  0
    5.2576   -4.6772   -1.4522 H   0  0  0  0  0  0  0  0  0  0  0  0
    7.0310   -3.0491   -2.1493 H   0  0  0  0  0  0  0  0  0  0  0  0
    7.4622   -2.8001   -0.3657 H   0  0  0  0  0  0  0  0  0  0  0  0
    3.4300   -3.8549   -2.4112 H   0  0  0  0  0  0  0  0  0  0  0  0
    2.1796   -3.0239   -4.3260 H   0  0  0  0  0  0  0  0  0  0  0  0
  1 21  2  0
  1  2  1  0
  1 22  1  0
  2  3  2  0
  2 23  1  0
  3  4  1  0
  3 24  1  0
  5  4  1  6
  4 20  2  0
  5 18  1  0
  5 19  1  0
  5  6  1  0
  6  7  1  0
  6 25  1  0
  6 26  1  0
  7  8  1  0
  8  9  1  0
  8 18  1  0
  8 27  1  1
  9 17  1  0
  9 10  1  0
 10 11  2  0
 10 28  1  0
 11 12  1  0
 12 17  2  0
 12 13  1  0
 13 14  2  0
 14 15  1  0
 14 29  1  0
 15 16  2  0
 16 17  1  0
 16 30  1  0
 18 19  1  0
 18 31  1  6
 19 32  1  0
 19 33  1  0
 20 21  1  0
 20 34  1  0
 21 35  1  0
M  END
>  <i_m_ct_stereo_status>  (261) 
1

>  <s_m_source_file>  (261) 
/var/tmp/pbs.5076255.sched01/tmp7yh4k8o6/114t33l0ocj.sdf

>  <i_m_source_file_index>  (261) 
11

>  <i_lp_mmshare_version>  (261) 
48012

>  <i_f3d_flags>  (261) 
0

>  <s_epik_input>  (261) 
W2NIXTFbY0hdW2NIXVtjSF1bY0hdYzFbQ0BdMjNbQ0BASF0oW0NIMl0zKVtDQEBIXShPW0NIMl0yKW4oW2NIXW40KWMoYzQ1KVtjSF1uW2NIXW41

>  <s_epik_cmdline>  (261) 
J2VwaWtfcHl0aG9uJywgJy1waHQnLCAnMi4wJywgJy1waCcsICc3LjAnLCAnLXRuJywgJzgnLCAnLW1hJywgJzIwMCcsICctaW1hZScsICc8aW5maWxlLm1hZT4nLCAnLW9tYWUnLCAnPG91dGZpbGUubWFlPic=

>  <r_lp_tautomer_probability>  (261) 
1

>  <r_epik_Ionization_Penalty>  (261) 
0.000105499

>  <r_epik_Ionization_Penalty_Charging>  (261) 
8.01563e-05

>  <r_epik_Ionization_Penalty_Neutral>  (261) 
2.53427e-05

>  <r_epik_State_Penalty>  (261) 
-0

>  <r_epik_Charging_Adjusted_Penalty>  (261) 
8.01563e-05

>  <i_epik_Tot_Q>  (261) 
0

>  <i_epik_Tot_abs_Q>  (261) 
0

>  <s_epik_Chemistry_Notes>  (261) 
This compound contains an acetal/aminal-like group ( X-CH(R)-Y where X, Y are N, S, or O) that may be acid/base labile, releasing an aldehyde.

>  <s_lp_Force_Field>  (261) 
OPLS3e

>  <r_lp_Energy>  (261) 
21.4986

>  <b_lp_Chiralities_Consistent>  (261) 
1

>  <s_lp_Variant>  (261) 
92:0-1

>  <s_i_glide_gridfile>  (261) 
pfpi4k_grid

>  <i_i_glide_lignum>  (261) 
11

>  <i_i_glide_rotatable_bonds>  (261) 
2

>  <r_i_docking_score>  (261) 
-3.9578

>  <r_i_glide_ligand_efficiency>  (261) 
-0.188466

>  <r_i_glide_ligand_efficiency_sa>  (261) 
-0.519965

>  <r_i_glide_ligand_efficiency_ln>  (261) 
-0.978557

>  <r_i_glide_gscore>  (261) 
-3.9578

>  <r_i_glide_lipo>  (261) 
-0.590155

>  <r_i_glide_hbond>  (261) 
-0.107948

>  <r_i_glide_metal>  (261) 
-0

>  <r_i_glide_rewards>  (261) 
-1.62104

>  <r_i_glide_evdw>  (261) 
-26.503

>  <r_i_glide_ecoul>  (261) 
-4.80296

>  <r_i_glide_erotb>  (261) 
0.465397

>  <r_i_glide_esite>  (261) 
-0.0584523

>  <r_i_glide_emodel>  (261) 
-38.7463

>  <r_i_glide_energy>  (261) 
-31.3059

>  <r_i_glide_einternal>  (261) 
0.794204

>  <r_i_glide_intrahb_reward>  (261) 
-0

>  <i_i_glide_confnum>  (261) 
4

>  <i_i_glide_posenum>  (261) 
28

>  <r_i_glide_eff_state_penalty>  (261) 
0

>  <ligand_id>  (261) 
92

>  <original_smiles>  (261) 
c1ccc(C23COC(n4cnc5ncncc54)C2C3)cc1

>  <smiles>  (261) 
[H]c1nc([H])c2c(n1)nc([H])n2C1([H])OC([H])([H])C2(c3c([H])c([H])c([H])c([H])c3[H])C([H])([H])C12[H]

$$$$
92:0:1
     RDKit          3D

 35 39  0  0  1  0  0  0  0  0999 V2000
    3.7209   -1.5707   -3.9495 C   0  0  0  0  0  0  0  0  0  0  0  0
    3.9348   -0.7044   -2.8642 C   0  0  0  0  0  0  0  0  0  0  0  0
    4.4258   -1.2036   -1.6397 C   0  0  0  0  0  0  0  0  0  0  0  0
    4.7152   -2.5854   -1.4941 C   0  0  0  0  0  0  0  0  0  0  0  0
    5.2510   -3.1396   -0.1897 C   0  0  1  0  0  0  0  0  0  0  0  0
    4.6010   -2.5809    1.0631 C   0  0  0  0  0  0  0  0  0  0  0  0
    4.7082   -3.6217    2.0415 O   0  0  0  0  0  0  0  0  0  0  0  0
    4.8437   -4.8714    1.4250 C   0  0  1  0  0  0  0  0  0  0  0  0
    3.4825   -5.4800    1.2600 N   0  0  0  0  0  0  0  0  0  0  0  0
    2.5212   -5.1719    0.3618 C   0  0  0  0  0  0  0  0  0  0  0  0
    1.3691   -5.8589    0.4164 N   0  0  0  0  0  0  0  0  0  0  0  0
    1.6166   -6.7072    1.4699 C   0  0  0  0  0  0  0  0  0  0  0  0
    0.7477   -7.6037    1.9436 N   0  0  0  0  0  0  0  0  0  0  0  0
    1.2401   -8.3278    2.9600 C   0  0  0  0  0  0  0  0  0  0  0  0
    2.4367   -8.2385    3.5465 N   0  0  0  0  0  0  0  0  0  0  0  0
    3.3073   -7.3158    3.0857 C   0  0  0  0  0  0  0  0  0  0  0  0
    2.9188   -6.5028    2.0059 C   0  0  0  0  0  0  0  0  0  0  0  0
    5.4165   -4.6100    0.0633 C   0  0  2  0  0  0  0  0  0  0  0  0
    6.6351   -3.7427   -0.1572 C   0  0  0  0  0  0  0  0  0  0  0  0
    4.5015   -3.4377   -2.6046 C   0  0  0  0  0  0  0  0  0  0  0  0
    4.0023   -2.9410   -3.8159 C   0  0  0  0  0  0  0  0  0  0  0  0
    3.3344   -1.1952   -4.8827 H   0  0  0  0  0  0  0  0  0  0  0  0
    3.7184    0.3475   -2.9729 H   0  0  0  0  0  0  0  0  0  0  0  0
    4.5767   -0.5155   -0.8159 H   0  0  0  0  0  0  0  0  0  0  0  0
    5.1244   -1.6904    1.4075 H   0  0  0  0  0  0  0  0  0  0  0  0
    3.5484   -2.3438    0.8993 H   0  0  0  0  0  0  0  0  0  0  0  0
    5.4184   -5.5703    2.0257 H   0  0  0  0  0  0  0  0  0  0  0  0
    2.6662   -4.4153   -0.3978 H   0  0  0  0  0  0  0  0  0  0  0  0
    0.5729   -9.0693    3.3659 H   0  0  0  0  0  0  0  0  0  0  0  0
    4.2759   -7.2454    3.5605 H   0  0  0  0  0  0  0  0  0  0  0  0
    5.1616   -5.3515   -0.6957 H   0  0  0  0  0  0  0  0  0  0  0  0
    7.1526   -3.8500   -1.1133 H   0  0  0  0  0  0  0  0  0  0  0  0
    7.2717   -3.5710    0.7108 H   0  0  0  0  0  0  0  0  0  0  0  0
    4.7157   -4.4952   -2.5623 H   0  0  0  0  0  0  0  0  0  0  0  0
    3.8522   -3.6356   -4.6251 H   0  0  0  0  0  0  0  0  0  0  0  0
  1 21  2  0
  1  2  1  0
  1 22  1  0
  2  3  2  0
  2 23  1  0
  3  4  1  0
  3 24  1  0
  5  4  1  6
  4 20  2  0
  5 18  1  0
  5 19  1  0
  5  6  1  0
  6  7  1  0
  6 25  1  0
  6 26  1  0
  7  8  1  0
  8  9  1  0
  8 18  1  0
  8 27  1  1
  9 17  1  0
  9 10  1  0
 10 11  2  0
 10 28  1  0
 11 12  1  0
 12 17  2  0
 12 13  1  0
 13 14  2  0
 14 15  1  0
 14 29  1  0
 15 16  2  0
 16 17  1  0
 16 30  1  0
 18 19  1  0
 18 31  1  6
 19 32  1  0
 19 33  1  0
 20 21  1  0
 20 34  1  0
 21 35  1  0
M  END
>  <i_m_ct_stereo_status>  (262) 
1

>  <s_m_source_file>  (262) 
/var/tmp/pbs.5076255.sched01/tmp7yh4k8o6/114t33l0ocj.sdf

>  <i_m_source_file_index>  (262) 
11

>  <i_lp_mmshare_version>  (262) 
48012

>  <i_f3d_flags>  (262) 
0

>  <s_epik_input>  (262) 
W2NIXTFbY0hdW2NIXVtjSF1bY0hdYzFbQ0BdMjNbQ0BASF0oW0NIMl0zKVtDQEBIXShPW0NIMl0yKW4oW2NIXW40KWMoYzQ1KVtjSF1uW2NIXW41

>  <s_epik_cmdline>  (262) 
J2VwaWtfcHl0aG9uJywgJy1waHQnLCAnMi4wJywgJy1waCcsICc3LjAnLCAnLXRuJywgJzgnLCAnLW1hJywgJzIwMCcsICctaW1hZScsICc8aW5maWxlLm1hZT4nLCAnLW9tYWUnLCAnPG91dGZpbGUubWFlPic=

>  <r_lp_tautomer_probability>  (262) 
1

>  <r_epik_Ionization_Penalty>  (262) 
0.000105499

>  <r_epik_Ionization_Penalty_Charging>  (262) 
8.01563e-05

>  <r_epik_Ionization_Penalty_Neutral>  (262) 
2.53427e-05

>  <r_epik_State_Penalty>  (262) 
-0

>  <r_epik_Charging_Adjusted_Penalty>  (262) 
8.01563e-05

>  <i_epik_Tot_Q>  (262) 
0

>  <i_epik_Tot_abs_Q>  (262) 
0

>  <s_epik_Chemistry_Notes>  (262) 
This compound contains an acetal/aminal-like group ( X-CH(R)-Y where X, Y are N, S, or O) that may be acid/base labile, releasing an aldehyde.

>  <s_lp_Force_Field>  (262) 
OPLS3e

>  <r_lp_Energy>  (262) 
21.4986

>  <b_lp_Chiralities_Consistent>  (262) 
1

>  <s_lp_Variant>  (262) 
92:0-1

>  <s_i_glide_gridfile>  (262) 
pfpi4k_grid

>  <i_i_glide_lignum>  (262) 
11

>  <i_i_glide_rotatable_bonds>  (262) 
2

>  <r_i_docking_score>  (262) 
-3.90077

>  <r_i_glide_ligand_efficiency>  (262) 
-0.185751

>  <r_i_glide_ligand_efficiency_sa>  (262) 
-0.512473

>  <r_i_glide_ligand_efficiency_ln>  (262) 
-0.964457

>  <r_i_glide_gscore>  (262) 
-3.90077

>  <r_i_glide_lipo>  (262) 
-0.494288

>  <r_i_glide_hbond>  (262) 
-0.157644

>  <r_i_glide_metal>  (262) 
-0

>  <r_i_glide_rewards>  (262) 
-1.57301

>  <r_i_glide_evdw>  (262) 
-26.9228

>  <r_i_glide_ecoul>  (262) 
-4.54442

>  <r_i_glide_erotb>  (262) 
0.465397

>  <r_i_glide_esite>  (262) 
-0.113422

>  <r_i_glide_emodel>  (262) 
-37.7011

>  <r_i_glide_energy>  (262) 
-31.4672

>  <r_i_glide_einternal>  (262) 
2.80666

>  <r_i_glide_intrahb_reward>  (262) 
-0

>  <i_i_glide_confnum>  (262) 
4

>  <i_i_glide_posenum>  (262) 
20

>  <r_i_glide_eff_state_penalty>  (262) 
0

>  <ligand_id>  (262) 
92

>  <original_smiles>  (262) 
c1ccc(C23COC(n4cnc5ncncc54)C2C3)cc1

>  <smiles>  (262) 
[H]c1nc([H])c2c(n1)nc([H])n2C1([H])OC([H])([H])C2(c3c([H])c([H])c([H])c([H])c3[H])C([H])([H])C12[H]

$$$$
92:0:2
     RDKit          3D

 35 39  0  0  1  0  0  0  0  0999 V2000
    3.1129   -1.9091   -3.7509 C   0  0  0  0  0  0  0  0  0  0  0  0
    2.6074   -2.8799   -2.8807 C   0  0  0  0  0  0  0  0  0  0  0  0
    3.1320   -2.9701   -1.5811 C   0  0  0  0  0  0  0  0  0  0  0  0
    4.1591   -2.1003   -1.1369 C   0  0  0  0  0  0  0  0  0  0  0  0
    4.6859   -2.2484    0.2771 C   0  0  1  0  0  0  0  0  0  0  0  0
    5.3381   -1.0207    0.9068 C   0  0  0  0  0  0  0  0  0  0  0  0
    4.6041   -0.7634    2.1153 O   0  0  0  0  0  0  0  0  0  0  0  0
    3.9645   -1.9310    2.5528 C   0  0  1  0  0  0  0  0  0  0  0  0
    2.6188   -1.6018    3.1061 N   0  0  0  0  0  0  0  0  0  0  0  0
    1.8883   -2.3439    3.9506 C   0  0  0  0  0  0  0  0  0  0  0  0
    0.6856   -1.8981    4.3073 N   0  0  0  0  0  0  0  0  0  0  0  0
    0.6257   -0.7013    3.6057 C   0  0  0  0  0  0  0  0  0  0  0  0
   -0.4031    0.1516    3.6275 N   0  0  0  0  0  0  0  0  0  0  0  0
   -0.2003    1.2202    2.8445 C   0  0  0  0  0  0  0  0  0  0  0  0
    0.8625    1.5251    2.0913 N   0  0  0  0  0  0  0  0  0  0  0  0
    1.8958    0.6632    2.0702 C   0  0  0  0  0  0  0  0  0  0  0  0
    1.8162   -0.5089    2.8474 C   0  0  0  0  0  0  0  0  0  0  0  0
    3.8128   -2.8203    1.3544 C   0  0  2  0  0  0  0  0  0  0  0  0
    4.9658   -3.6330    0.8234 C   0  0  0  0  0  0  0  0  0  0  0  0
    4.6727   -1.1466   -2.0544 C   0  0  0  0  0  0  0  0  0  0  0  0
    4.1438   -1.0482   -3.3574 C   0  0  0  0  0  0  0  0  0  0  0  0
    2.6777   -1.8212   -4.7345 H   0  0  0  0  0  0  0  0  0  0  0  0
    1.8196   -3.5463   -3.1767 H   0  0  0  0  0  0  0  0  0  0  0  0
    2.7180   -3.7340   -0.9458 H   0  0  0  0  0  0  0  0  0  0  0  0
    6.3786   -1.2501    1.1286 H   0  0  0  0  0  0  0  0  0  0  0  0
    5.2955   -0.1134    0.3128 H   0  0  0  0  0  0  0  0  0  0  0  0
    4.5289   -2.3991    3.3721 H   0  0  0  0  0  0  0  0  0  0  0  0
    2.2552   -3.2904    4.3236 H   0  0  0  0  0  0  0  0  0  0  0  0
   -1.0019    1.9514    2.8212 H   0  0  0  0  0  0  0  0  0  0  0  0
    2.7537    0.8921    1.4624 H   0  0  0  0  0  0  0  0  0  0  0  0
    2.7920   -3.0804    1.1033 H   0  0  0  0  0  0  0  0  0  0  0  0
    4.7312   -4.4932    0.1879 H   0  0  0  0  0  0  0  0  0  0  0  0
    5.8166   -3.7652    1.4896 H   0  0  0  0  0  0  0  0  0  0  0  0
    5.4722   -0.4737   -1.7992 H   0  0  0  0  0  0  0  0  0  0  0  0
    4.5273   -0.3074   -4.0366 H   0  0  0  0  0  0  0  0  0  0  0  0
  1 21  2  0
  1  2  1  0
  1 22  1  0
  2  3  2  0
  2 23  1  0
  3  4  1  0
  3 24  1  0
  5  4  1  6
  4 20  2  0
  5 18  1  0
  5 19  1  0
  5  6  1  0
  6  7  1  0
  6 25  1  0
  6 26  1  0
  7  8  1  0
  8  9  1  0
  8 18  1  0
  8 27  1  1
  9 17  1  0
  9 10  1  0
 10 11  2  0
 10 28  1  0
 11 12  1  0
 12 17  2  0
 12 13  1  0
 13 14  2  0
 14 15  1  0
 14 29  1  0
 15 16  2  0
 16 17  1  0
 16 30  1  0
 18 19  1  0
 18 31  1  6
 19 32  1  0
 19 33  1  0
 20 21  1  0
 20 34  1  0
 21 35  1  0
M  END
>  <i_m_ct_stereo_status>  (263) 
1

>  <s_m_source_file>  (263) 
/var/tmp/pbs.5076255.sched01/tmp7yh4k8o6/114t33l0ocj.sdf

>  <i_m_source_file_index>  (263) 
11

>  <i_lp_mmshare_version>  (263) 
48012

>  <i_f3d_flags>  (263) 
0

>  <s_epik_input>  (263) 
W2NIXTFbY0hdW2NIXVtjSF1bY0hdYzFbQ0BdMjNbQ0BASF0oW0NIMl0zKVtDQEBIXShPW0NIMl0yKW4oW2NIXW40KWMoYzQ1KVtjSF1uW2NIXW41

>  <s_epik_cmdline>  (263) 
J2VwaWtfcHl0aG9uJywgJy1waHQnLCAnMi4wJywgJy1waCcsICc3LjAnLCAnLXRuJywgJzgnLCAnLW1hJywgJzIwMCcsICctaW1hZScsICc8aW5maWxlLm1hZT4nLCAnLW9tYWUnLCAnPG91dGZpbGUubWFlPic=

>  <r_lp_tautomer_probability>  (263) 
1

>  <r_epik_Ionization_Penalty>  (263) 
0.000105499

>  <r_epik_Ionization_Penalty_Charging>  (263) 
8.01563e-05

>  <r_epik_Ionization_Penalty_Neutral>  (263) 
2.53427e-05

>  <r_epik_State_Penalty>  (263) 
-0

>  <r_epik_Charging_Adjusted_Penalty>  (263) 
8.01563e-05

>  <i_epik_Tot_Q>  (263) 
0

>  <i_epik_Tot_abs_Q>  (263) 
0

>  <s_epik_Chemistry_Notes>  (263) 
This compound contains an acetal/aminal-like group ( X-CH(R)-Y where X, Y are N, S, or O) that may be acid/base labile, releasing an aldehyde.

>  <s_lp_Force_Field>  (263) 
OPLS3e

>  <r_lp_Energy>  (263) 
21.4986

>  <b_lp_Chiralities_Consistent>  (263) 
1

>  <s_lp_Variant>  (263) 
92:0-1

>  <s_i_glide_gridfile>  (263) 
pfpi4k_grid

>  <i_i_glide_lignum>  (263) 
11

>  <i_i_glide_rotatable_bonds>  (263) 
2

>  <r_i_docking_score>  (263) 
-3.07305

>  <r_i_glide_ligand_efficiency>  (263) 
-0.146336

>  <r_i_glide_ligand_efficiency_sa>  (263) 
-0.403729

>  <r_i_glide_ligand_efficiency_ln>  (263) 
-0.759805

>  <r_i_glide_gscore>  (263) 
-3.07305

>  <r_i_glide_lipo>  (263) 
-0.539263

>  <r_i_glide_hbond>  (263) 
0

>  <r_i_glide_metal>  (263) 
-0

>  <r_i_glide_rewards>  (263) 
-1.52142

>  <r_i_glide_evdw>  (263) 
-28.157

>  <r_i_glide_ecoul>  (263) 
-0.0541921

>  <r_i_glide_erotb>  (263) 
0.465397

>  <r_i_glide_esite>  (263) 
-0.0617791

>  <r_i_glide_emodel>  (263) 
-31.6274

>  <r_i_glide_energy>  (263) 
-28.2112

>  <r_i_glide_einternal>  (263) 
4.81221

>  <r_i_glide_intrahb_reward>  (263) 
-0

>  <i_i_glide_confnum>  (263) 
6

>  <i_i_glide_posenum>  (263) 
3

>  <r_i_glide_eff_state_penalty>  (263) 
0

>  <ligand_id>  (263) 
92

>  <original_smiles>  (263) 
c1ccc(C23COC(n4cnc5ncncc54)C2C3)cc1

>  <smiles>  (263) 
[H]c1nc([H])c2c(n1)nc([H])n2C1([H])OC([H])([H])C2(c3c([H])c([H])c([H])c([H])c3[H])C([H])([H])C12[H]

$$$$
93:0:0
     RDKit          3D

 57 62  0  0  1  0  0  0  0  0999 V2000
    5.0972   -3.0876   -1.8920 C   0  0  0  0  0  0  0  0  0  0  0  0
    5.5440   -2.7148   -0.4545 C   0  0  1  0  0  0  0  0  0  0  0  0
    4.7938   -1.4541    0.0501 C   0  0  0  0  0  0  0  0  0  0  0  0
    3.5290   -1.9637    0.7508 C   0  0  1  0  0  0  0  0  0  0  0  0
    3.8393   -3.3891    1.2814 C   0  0  2  0  0  0  0  0  0  0  0  0
    3.7895   -3.6260    2.8369 C   0  0  0  0  0  0  0  0  0  0  0  0
    3.0746   -2.5310    3.6443 C   0  0  0  0  0  0  0  0  0  0  0  0
    2.2551   -2.8370    4.5203 O   0  0  0  0  0  0  0  0  0  0  0  0
    3.3506   -1.0890    3.2599 C   0  0  2  0  0  0  0  0  0  0  0  0
    4.8739   -0.7246    3.3379 C   0  0  0  0  0  0  0  0  0  0  0  0
    5.3432   -0.3401    4.7450 C   0  0  0  0  0  0  0  0  0  0  0  0
    4.5289    0.8397    5.2787 C   0  0  0  0  0  0  0  0  0  0  0  0
    3.0326    0.5370    5.3173 C   0  0  0  0  0  0  0  0  0  0  0  0
    2.7153   -0.4806    6.4389 C   0  0  0  0  0  0  0  0  0  0  0  0
    2.2966    1.8549    5.7262 C   0  0  0  0  0  0  0  0  0  0  0  0
    2.5707    0.0684    3.9190 C   0  0  2  0  0  0  0  0  0  0  0  0
    1.1652    0.2103    3.5827 O   0  0  0  0  0  0  0  0  0  0  0  0
    2.1599    0.9778    2.7987 C   0  0  2  0  0  0  0  0  0  0  0  0
    2.5665    0.4411    1.4790 C   0  0  0  0  0  0  0  0  0  0  0  0
    2.8474   -1.0362    1.7871 C   0  0  1  0  0  0  0  0  0  0  0  0
    5.1297   -3.8329    0.5341 C   0  0  2  0  0  0  0  0  0  0  0  0
    6.4013   -4.1543    1.3352 C   0  0  0  0  0  0  0  0  0  0  0  0
    7.5559   -3.8350    0.3960 C   0  0  0  0  0  0  0  0  0  0  0  0
    7.0832   -2.5615   -0.2984 C   0  0  1  0  0  0  0  0  0  0  0  0
    7.7805   -2.3603   -1.5107 O   0  0  0  0  0  0  0  0  0  0  0  0
    5.3032   -2.2881   -2.6013 H   0  0  0  0  0  0  0  0  0  0  0  0
    4.0291   -3.2955   -1.9373 H   0  0  0  0  0  0  0  0  0  0  0  0
    5.6114   -3.9786   -2.2442 H   0  0  0  0  0  0  0  0  0  0  0  0
    5.4020   -0.8962    0.7463 H   0  0  0  0  0  0  0  0  0  0  0  0
    4.5478   -0.7676   -0.7659 H   0  0  0  0  0  0  0  0  0  0  0  0
    2.8038   -2.0972   -0.0592 H   0  0  0  0  0  0  0  0  0  0  0  0
    3.0321   -4.0150    0.8978 H   0  0  0  0  0  0  0  0  0  0  0  0
    3.3118   -4.5823    3.0334 H   0  0  0  0  0  0  0  0  0  0  0  0
    4.7857   -3.7099    3.2703 H   0  0  0  0  0  0  0  0  0  0  0  0
    5.4899   -1.5598    3.0066 H   0  0  0  0  0  0  0  0  0  0  0  0
    5.0956    0.0907    2.6804 H   0  0  0  0  0  0  0  0  0  0  0  0
    5.3090   -1.1824    5.4232 H   0  0  0  0  0  0  0  0  0  0  0  0
    6.3994   -0.0411    4.6978 H   0  0  0  0  0  0  0  0  0  0  0  0
    4.8987    1.1536    6.2518 H   0  0  0  0  0  0  0  0  0  0  0  0
    4.6931    1.6898    4.6042 H   0  0  0  0  0  0  0  0  0  0  0  0
    1.6551   -0.7464    6.4638 H   0  0  0  0  0  0  0  0  0  0  0  0
    2.9806   -0.0800    7.4164 H   0  0  0  0  0  0  0  0  0  0  0  0
    3.2838   -1.4073    6.3291 H   0  0  0  0  0  0  0  0  0  0  0  0
    1.2168    1.7284    5.7391 H   0  0  0  0  0  0  0  0  0  0  0  0
    2.5405    2.6826    5.0702 H   0  0  0  0  0  0  0  0  0  0  0  0
    2.5962    2.1604    6.7384 H   0  0  0  0  0  0  0  0  0  0  0  0
    2.1345    2.0646    2.9594 H   0  0  0  0  0  0  0  0  0  0  0  0
    1.7771    0.5605    0.7373 H   0  0  0  0  0  0  0  0  0  0  0  0
    3.4649    0.9499    1.1333 H   0  0  0  0  0  0  0  0  0  0  0  0
    1.8264   -1.4462    1.8146 H   0  0  0  0  0  0  0  0  0  0  0  0
    4.8996   -4.7401   -0.0380 H   0  0  0  0  0  0  0  0  0  0  0  0
    6.5002   -3.4933    2.1963 H   0  0  0  0  0  0  0  0  0  0  0  0
    6.4281   -5.1875    1.6927 H   0  0  0  0  0  0  0  0  0  0  0  0
    8.4981   -3.6786    0.9328 H   0  0  0  0  0  0  0  0  0  0  0  0
    7.7041   -4.6403   -0.3148 H   0  0  0  0  0  0  0  0  0  0  0  0
    7.3271   -1.7335    0.3592 H   0  0  0  0  0  0  0  0  0  0  0  0
    8.6768   -2.6533   -1.4268 H   0  0  0  0  0  0  0  0  0  0  0  0
  2  1  1  6
  1 26  1  0
  1 27  1  0
  1 28  1  0
  2 21  1  0
  2 24  1  0
  2  3  1  0
  3  4  1  0
  3 29  1  0
  3 30  1  0
  4 20  1  0
  4  5  1  0
  4 31  1  6
  5  6  1  0
  5 21  1  0
  5 32  1  6
  6  7  1  0
  6 33  1  0
  6 34  1  0
  7  8  2  0
  7  9  1  0
  9 16  1  0
  9 20  1  0
  9 10  1  6
 10 11  1  0
 10 35  1  0
 10 36  1  0
 11 12  1  0
 11 37  1  0
 11 38  1  0
 12 13  1  0
 12 39  1  0
 12 40  1  0
 13 14  1  0
 13 15  1  0
 13 16  1  0
 14 41  1  0
 14 42  1  0
 14 43  1  0
 15 44  1  0
 15 45  1  0
 15 46  1  0
 16 18  1  0
 16 17  1  1
 17 18  1  0
 18 19  1  0
 18 47  1  1
 19 20  1  0
 19 48  1  0
 19 49  1  0
 20 50  1  1
 21 22  1  0
 21 51  1  6
 22 23  1  0
 22 52  1  0
 22 53  1  0
 23 24  1  0
 23 54  1  0
 23 55  1  0
 24 25  1  0
 24 56  1  1
 25 57  1  0
M  END
>  <i_m_ct_stereo_status>  (264) 
1

>  <s_m_source_file>  (264) 
/var/tmp/pbs.5076255.sched01/tmp7yh4k8o6/114t33l0ocj.sdf

>  <i_m_source_file_index>  (264) 
12

>  <i_lp_mmshare_version>  (264) 
48012

>  <i_f3d_flags>  (264) 
0

>  <s_epik_input>  (264) 
W0NIMl0xW0NIMl1bQ0BASF0oW09IXSlbQ0BdKFtDSDNdKShbQ0gyXTIpW0NAQEhdMVtDQEBIXShbQ0gyXUMzPU8pW0NASF0yW0NAQEhdNFtDSDJdW0NAQEhdKE81KVtDQEBdNShbQ0BAXTM0NilDKFtDSDNdKShbQ0gzXSlbQ0gyXVtDSDJdW0NIMl02

>  <s_epik_cmdline>  (264) 
J2VwaWtfcHl0aG9uJywgJy1waHQnLCAnMi4wJywgJy1waCcsICc3LjAnLCAnLXRuJywgJzgnLCAnLW1hJywgJzIwMCcsICctaW1hZScsICc8aW5maWxlLm1hZT4nLCAnLW9tYWUnLCAnPG91dGZpbGUubWFlPic=

>  <r_lp_tautomer_probability>  (264) 
1

>  <r_epik_Ionization_Penalty>  (264) 
2.23537e-06

>  <r_epik_Ionization_Penalty_Charging>  (264) 
0

>  <r_epik_Ionization_Penalty_Neutral>  (264) 
2.23537e-06

>  <r_epik_State_Penalty>  (264) 
-0

>  <r_epik_Charging_Adjusted_Penalty>  (264) 
0

>  <i_epik_Tot_Q>  (264) 
0

>  <i_epik_Tot_abs_Q>  (264) 
0

>  <s_lp_Force_Field>  (264) 
OPLS3e

>  <r_lp_Energy>  (264) 
47.6152

>  <b_lp_Chiralities_Consistent>  (264) 
1

>  <s_lp_Variant>  (264) 
93:0-1

>  <s_i_glide_gridfile>  (264) 
pfpi4k_grid

>  <i_i_glide_lignum>  (264) 
12

>  <i_i_glide_rotatable_bonds>  (264) 
1

>  <r_i_docking_score>  (264) 
-3.5419

>  <r_i_glide_ligand_efficiency>  (264) 
-0.141676

>  <r_i_glide_ligand_efficiency_sa>  (264) 
-0.414263

>  <r_i_glide_ligand_efficiency_ln>  (264) 
-0.839536

>  <r_i_glide_gscore>  (264) 
-3.5419

>  <r_i_glide_lipo>  (264) 
-0.580068

>  <r_i_glide_hbond>  (264) 
-0.16

>  <r_i_glide_metal>  (264) 
-0

>  <r_i_glide_rewards>  (264) 
-1.06034

>  <r_i_glide_evdw>  (264) 
-23.1618

>  <r_i_glide_ecoul>  (264) 
-3.88934

>  <r_i_glide_erotb>  (264) 
0

>  <r_i_glide_esite>  (264) 
0

>  <r_i_glide_emodel>  (264) 
-32.7913

>  <r_i_glide_energy>  (264) 
-27.0511

>  <r_i_glide_einternal>  (264) 
0.971227

>  <r_i_glide_intrahb_reward>  (264) 
-0

>  <i_i_glide_confnum>  (264) 
2

>  <i_i_glide_posenum>  (264) 
24

>  <r_i_glide_eff_state_penalty>  (264) 
0

>  <ligand_id>  (264) 
93

>  <original_smiles>  (264) 
CC12CC3C(CC(=O)C45CCCC(C)(C)C46OC6CC35)C1CCC2O

>  <smiles>  (264) 
[H]OC1([H])C([H])([H])C([H])([H])C2([H])C3([H])C([H])([H])C(=O)C45C([H])([H])C([H])([H])C([H])([H])C(C([H])([H])[H])(C([H])([H])[H])C46OC6([H])C([H])([H])C5([H])C3([H])C([H])([H])C12C([H])([H])[H]

$$$$
93:0:1
     RDKit          3D

 57 62  0  0  1  0  0  0  0  0999 V2000
    5.2739   -5.9359    6.7093 C   0  0  0  0  0  0  0  0  0  0  0  0
    4.6533   -4.8103    5.8518 C   0  0  1  0  0  0  0  0  0  0  0  0
    5.4351   -4.6207    4.5351 C   0  0  0  0  0  0  0  0  0  0  0  0
    4.7736   -5.5403    3.5052 C   0  0  1  0  0  0  0  0  0  0  0  0
    3.2911   -5.7054    3.9250 C   0  0  2  0  0  0  0  0  0  0  0  0
    2.1772   -5.1838    2.9462 C   0  0  0  0  0  0  0  0  0  0  0  0
    2.6452   -4.9216    1.5086 C   0  0  0  0  0  0  0  0  0  0  0  0
    1.9804   -5.3425    0.5528 O   0  0  0  0  0  0  0  0  0  0  0  0
    3.9794   -4.2049    1.3421 C   0  0  2  0  0  0  0  0  0  0  0  0
    4.0283   -2.8216    2.0548 C   0  0  0  0  0  0  0  0  0  0  0  0
    3.4329   -1.6703    1.2325 C   0  0  0  0  0  0  0  0  0  0  0  0
    4.1558   -1.5469   -0.1170 C   0  0  0  0  0  0  0  0  0  0  0  0
    4.0852   -2.8444   -0.9267 C   0  0  0  0  0  0  0  0  0  0  0  0
    2.6534   -3.0653   -1.4577 C   0  0  0  0  0  0  0  0  0  0  0  0
    4.9666   -2.6584   -2.2019 C   0  0  0  0  0  0  0  0  0  0  0  0
    4.5997   -4.0138   -0.0574 C   0  0  2  0  0  0  0  0  0  0  0  0
    5.0873   -5.1940   -0.7255 O   0  0  0  0  0  0  0  0  0  0  0  0
    6.0368   -4.4070    0.0757 C   0  0  2  0  0  0  0  0  0  0  0  0
    6.3709   -4.9052    1.4379 C   0  0  0  0  0  0  0  0  0  0  0  0
    4.9755   -5.2158    2.0035 C   0  0  1  0  0  0  0  0  0  0  0  0
    3.2249   -5.2073    5.4007 C   0  0  2  0  0  0  0  0  0  0  0  0
    2.3304   -4.0036    5.7552 C   0  0  0  0  0  0  0  0  0  0  0  0
    3.0104   -3.3610    6.9636 C   0  0  0  0  0  0  0  0  0  0  0  0
    4.4893   -3.4637    6.6122 C   0  0  1  0  0  0  0  0  0  0  0  0
    5.2878   -3.3372    7.7766 O   0  0  0  0  0  0  0  0  0  0  0  0
    6.3064   -5.7156    6.9834 H   0  0  0  0  0  0  0  0  0  0  0  0
    5.2773   -6.8889    6.1817 H   0  0  0  0  0  0  0  0  0  0  0  0
    4.7195   -6.0826    7.6359 H   0  0  0  0  0  0  0  0  0  0  0  0
    5.3862   -3.5904    4.1975 H   0  0  0  0  0  0  0  0  0  0  0  0
    6.4939   -4.8570    4.6571 H   0  0  0  0  0  0  0  0  0  0  0  0
    5.2464   -6.5135    3.6687 H   0  0  0  0  0  0  0  0  0  0  0  0
    3.1288   -6.7825    3.9601 H   0  0  0  0  0  0  0  0  0  0  0  0
    1.3642   -5.9101    2.9263 H   0  0  0  0  0  0  0  0  0  0  0  0
    1.7287   -4.2545    3.2896 H   0  0  0  0  0  0  0  0  0  0  0  0
    3.4935   -2.8499    3.0062 H   0  0  0  0  0  0  0  0  0  0  0  0
    5.0418   -2.5588    2.2948 H   0  0  0  0  0  0  0  0  0  0  0  0
    2.3652   -1.7905    1.0917 H   0  0  0  0  0  0  0  0  0  0  0  0
    3.5557   -0.7336    1.7806 H   0  0  0  0  0  0  0  0  0  0  0  0
    3.7662   -0.7050   -0.6837 H   0  0  0  0  0  0  0  0  0  0  0  0
    5.2061   -1.3167    0.0890 H   0  0  0  0  0  0  0  0  0  0  0  0
    2.5483   -3.9917   -2.0101 H   0  0  0  0  0  0  0  0  0  0  0  0
    2.3453   -2.2555   -2.1237 H   0  0  0  0  0  0  0  0  0  0  0  0
    1.9152   -3.0845   -0.6522 H   0  0  0  0  0  0  0  0  0  0  0  0
    4.9936   -3.5619   -2.8099 H   0  0  0  0  0  0  0  0  0  0  0  0
    5.9922   -2.3784   -1.9596 H   0  0  0  0  0  0  0  0  0  0  0  0
    4.5664   -1.8585   -2.8315 H   0  0  0  0  0  0  0  0  0  0  0  0
    6.8048   -3.8767   -0.5079 H   0  0  0  0  0  0  0  0  0  0  0  0
    7.0233   -5.7745    1.4017 H   0  0  0  0  0  0  0  0  0  0  0  0
    6.8650   -4.1171    2.0042 H   0  0  0  0  0  0  0  0  0  0  0  0
    4.7601   -6.1835    1.5356 H   0  0  0  0  0  0  0  0  0  0  0  0
    2.8800   -6.0345    6.0259 H   0  0  0  0  0  0  0  0  0  0  0  0
    2.3193   -3.2562    4.9644 H   0  0  0  0  0  0  0  0  0  0  0  0
    1.3037   -4.2992    5.9703 H   0  0  0  0  0  0  0  0  0  0  0  0
    2.6953   -2.3290    7.1166 H   0  0  0  0  0  0  0  0  0  0  0  0
    2.7859   -3.9217    7.8684 H   0  0  0  0  0  0  0  0  0  0  0  0
    4.7318   -2.6240    5.9697 H   0  0  0  0  0  0  0  0  0  0  0  0
    5.1790   -2.4797    8.1249 H   0  0  0  0  0  0  0  0  0  0  0  0
  2  1  1  1
  1 26  1  0
  1 27  1  0
  1 28  1  0
  2 21  1  0
  2 24  1  0
  2  3  1  0
  3  4  1  0
  3 29  1  0
  3 30  1  0
  4 20  1  0
  4  5  1  0
  4 31  1  6
  5  6  1  0
  5 21  1  0
  5 32  1  1
  6  7  1  0
  6 33  1  0
  6 34  1  0
  7  8  2  0
  7  9  1  0
  9 16  1  0
  9 20  1  0
  9 10  1  1
 10 11  1  0
 10 35  1  0
 10 36  1  0
 11 12  1  0
 11 37  1  0
 11 38  1  0
 12 13  1  0
 12 39  1  0
 12 40  1  0
 13 14  1  0
 13 15  1  0
 13 16  1  0
 14 41  1  0
 14 42  1  0
 14 43  1  0
 15 44  1  0
 15 45  1  0
 15 46  1  0
 16 18  1  0
 16 17  1  6
 17 18  1  0
 18 19  1  0
 18 47  1  6
 19 20  1  0
 19 48  1  0
 19 49  1  0
 20 50  1  6
 21 22  1  0
 21 51  1  1
 22 23  1  0
 22 52  1  0
 22 53  1  0
 23 24  1  0
 23 54  1  0
 23 55  1  0
 24 25  1  0
 24 56  1  6
 25 57  1  0
M  END
>  <i_m_ct_stereo_status>  (265) 
1

>  <s_m_source_file>  (265) 
/var/tmp/pbs.5076255.sched01/tmp7yh4k8o6/114t33l0ocj.sdf

>  <i_m_source_file_index>  (265) 
12

>  <i_lp_mmshare_version>  (265) 
48012

>  <i_f3d_flags>  (265) 
0

>  <s_epik_input>  (265) 
W0NIMl0xW0NIMl1bQ0BASF0oW09IXSlbQ0BdKFtDSDNdKShbQ0gyXTIpW0NAQEhdMVtDQEBIXShbQ0gyXUMzPU8pW0NASF0yW0NAQEhdNFtDSDJdW0NAQEhdKE81KVtDQEBdNShbQ0BAXTM0NilDKFtDSDNdKShbQ0gzXSlbQ0gyXVtDSDJdW0NIMl02

>  <s_epik_cmdline>  (265) 
J2VwaWtfcHl0aG9uJywgJy1waHQnLCAnMi4wJywgJy1waCcsICc3LjAnLCAnLXRuJywgJzgnLCAnLW1hJywgJzIwMCcsICctaW1hZScsICc8aW5maWxlLm1hZT4nLCAnLW9tYWUnLCAnPG91dGZpbGUubWFlPic=

>  <r_lp_tautomer_probability>  (265) 
1

>  <r_epik_Ionization_Penalty>  (265) 
2.23537e-06

>  <r_epik_Ionization_Penalty_Charging>  (265) 
0

>  <r_epik_Ionization_Penalty_Neutral>  (265) 
2.23537e-06

>  <r_epik_State_Penalty>  (265) 
-0

>  <r_epik_Charging_Adjusted_Penalty>  (265) 
0

>  <i_epik_Tot_Q>  (265) 
0

>  <i_epik_Tot_abs_Q>  (265) 
0

>  <s_lp_Force_Field>  (265) 
OPLS3e

>  <r_lp_Energy>  (265) 
47.6152

>  <b_lp_Chiralities_Consistent>  (265) 
1

>  <s_lp_Variant>  (265) 
93:0-1

>  <s_i_glide_gridfile>  (265) 
pfpi4k_grid

>  <i_i_glide_lignum>  (265) 
12

>  <i_i_glide_rotatable_bonds>  (265) 
1

>  <r_i_docking_score>  (265) 
-2.47883

>  <r_i_glide_ligand_efficiency>  (265) 
-0.0991533

>  <r_i_glide_ligand_efficiency_sa>  (265) 
-0.289926

>  <r_i_glide_ligand_efficiency_ln>  (265) 
-0.587558

>  <r_i_glide_gscore>  (265) 
-2.47883

>  <r_i_glide_lipo>  (265) 
-0.295481

>  <r_i_glide_hbond>  (265) 
-0.0630106

>  <r_i_glide_metal>  (265) 
-0

>  <r_i_glide_rewards>  (265) 
-1.06031

>  <r_i_glide_evdw>  (265) 
-19.0999

>  <r_i_glide_ecoul>  (265) 
-0.590836

>  <r_i_glide_erotb>  (265) 
0

>  <r_i_glide_esite>  (265) 
-0.0164073

>  <r_i_glide_emodel>  (265) 
-23.7411

>  <r_i_glide_energy>  (265) 
-19.6908

>  <r_i_glide_einternal>  (265) 
0.328195

>  <r_i_glide_intrahb_reward>  (265) 
-0

>  <i_i_glide_confnum>  (265) 
1

>  <i_i_glide_posenum>  (265) 
26

>  <r_i_glide_eff_state_penalty>  (265) 
0

>  <ligand_id>  (265) 
93

>  <original_smiles>  (265) 
CC12CC3C(CC(=O)C45CCCC(C)(C)C46OC6CC35)C1CCC2O

>  <smiles>  (265) 
[H]OC1([H])C([H])([H])C([H])([H])C2([H])C3([H])C([H])([H])C(=O)C45C([H])([H])C([H])([H])C([H])([H])C(C([H])([H])[H])(C([H])([H])[H])C46OC6([H])C([H])([H])C5([H])C3([H])C([H])([H])C12C([H])([H])[H]

$$$$
93:0:2
     RDKit          3D

 57 62  0  0  1  0  0  0  0  0999 V2000
    2.7571   -3.1310   -2.8316 C   0  0  0  0  0  0  0  0  0  0  0  0
    3.4843   -2.5754   -1.5663 C   0  0  1  0  0  0  0  0  0  0  0  0
    2.7045   -2.8973   -0.2750 C   0  0  0  0  0  0  0  0  0  0  0  0
    3.3040   -4.1667    0.2895 C   0  0  1  0  0  0  0  0  0  0  0  0
    4.7721   -4.2395   -0.1983 C   0  0  2  0  0  0  0  0  0  0  0  0
    5.8960   -4.1932    0.8846 C   0  0  0  0  0  0  0  0  0  0  0  0
    5.4507   -4.5040    2.3324 C   0  0  0  0  0  0  0  0  0  0  0  0
    6.0660   -5.3108    3.0239 O   0  0  0  0  0  0  0  0  0  0  0  0
    4.1176   -3.8562    2.7745 C   0  0  2  0  0  0  0  0  0  0  0  0
    4.1517   -2.2940    2.7001 C   0  0  0  0  0  0  0  0  0  0  0  0
    4.7746   -1.6009    3.9133 C   0  0  0  0  0  0  0  0  0  0  0  0
    4.0826   -2.0289    5.2089 C   0  0  0  0  0  0  0  0  0  0  0  0
    4.0988   -3.5598    5.4387 C   0  0  0  0  0  0  0  0  0  0  0  0
    5.5145   -4.0493    5.7753 C   0  0  0  0  0  0  0  0  0  0  0  0
    3.2186   -3.8403    6.6769 C   0  0  0  0  0  0  0  0  0  0  0  0
    3.5582   -4.2453    4.1625 C   0  0  2  0  0  0  0  0  0  0  0  0
    2.9912   -5.5410    4.3302 O   0  0  0  0  0  0  0  0  0  0  0  0
    2.0904   -4.4884    3.9632 C   0  0  2  0  0  0  0  0  0  0  0  0
    1.7768   -4.3380    2.4983 C   0  0  0  0  0  0  0  0  0  0  0  0
    3.1184   -4.4889    1.7918 C   0  0  1  0  0  0  0  0  0  0  0  0
    4.8752   -3.2084   -1.3490 C   0  0  2  0  0  0  0  0  0  0  0  0
    5.8371   -2.0084   -1.1668 C   0  0  0  0  0  0  0  0  0  0  0  0
    5.2108   -0.9202   -2.0006 C   0  0  0  0  0  0  0  0  0  0  0  0
    3.7620   -1.0773   -1.7186 C   0  0  1  0  0  0  0  0  0  0  0  0
    3.0387   -0.4988   -2.8040 O   0  0  0  0  0  0  0  0  0  0  0  0
    1.7629   -2.7210   -2.9473 H   0  0  0  0  0  0  0  0  0  0  0  0
    2.6474   -4.1979   -2.7831 H   0  0  0  0  0  0  0  0  0  0  0  0
    3.3118   -2.9082   -3.7327 H   0  0  0  0  0  0  0  0  0  0  0  0
    2.7831   -2.0826    0.4414 H   0  0  0  0  0  0  0  0  0  0  0  0
    1.6475   -3.0795   -0.4672 H   0  0  0  0  0  0  0  0  0  0  0  0
    2.7710   -4.9530   -0.2411 H   0  0  0  0  0  0  0  0  0  0  0  0
    4.8596   -5.2121   -0.6804 H   0  0  0  0  0  0  0  0  0  0  0  0
    6.6664   -4.9110    0.6006 H   0  0  0  0  0  0  0  0  0  0  0  0
    6.3957   -3.2329    0.9376 H   0  0  0  0  0  0  0  0  0  0  0  0
    4.7038   -1.9812    1.8242 H   0  0  0  0  0  0  0  0  0  0  0  0
    3.1441   -1.9044    2.5784 H   0  0  0  0  0  0  0  0  0  0  0  0
    5.8096   -1.8746    3.9327 H   0  0  0  0  0  0  0  0  0  0  0  0
    4.7347   -0.5165    3.7780 H   0  0  0  0  0  0  0  0  0  0  0  0
    4.5482   -1.4989    6.0457 H   0  0  0  0  0  0  0  0  0  0  0  0
    3.0541   -1.6647    5.1462 H   0  0  0  0  0  0  0  0  0  0  0  0
    5.5344   -5.1340    5.8879 H   0  0  0  0  0  0  0  0  0  0  0  0
    5.8659   -3.6019    6.7102 H   0  0  0  0  0  0  0  0  0  0  0  0
    6.2313   -3.7754    5.0006 H   0  0  0  0  0  0  0  0  0  0  0  0
    3.1441   -4.9088    6.8454 H   0  0  0  0  0  0  0  0  0  0  0  0
    2.2149   -3.4216    6.5724 H   0  0  0  0  0  0  0  0  0  0  0  0
    3.6749   -3.3867    7.5644 H   0  0  0  0  0  0  0  0  0  0  0  0
    1.3367   -4.1553    4.6806 H   0  0  0  0  0  0  0  0  0  0  0  0
    1.0405   -5.0855    2.1711 H   0  0  0  0  0  0  0  0  0  0  0  0
    1.3715   -3.3222    2.3452 H   0  0  0  0  0  0  0  0  0  0  0  0
    3.2813   -5.5621    1.8409 H   0  0  0  0  0  0  0  0  0  0  0  0
    5.1650   -3.7056   -2.2829 H   0  0  0  0  0  0  0  0  0  0  0  0
    5.8696   -1.6259   -0.1458 H   0  0  0  0  0  0  0  0  0  0  0  0
    6.8457   -2.2402   -1.5235 H   0  0  0  0  0  0  0  0  0  0  0  0
    5.5332    0.0832   -1.7780 H   0  0  0  0  0  0  0  0  0  0  0  0
    5.3726   -1.1095   -3.0675 H   0  0  0  0  0  0  0  0  0  0  0  0
    3.4680   -0.5495   -0.8118 H   0  0  0  0  0  0  0  0  0  0  0  0
    3.0135    0.4391   -2.7051 H   0  0  0  0  0  0  0  0  0  0  0  0
  2  1  1  6
  1 26  1  0
  1 27  1  0
  1 28  1  0
  2 21  1  0
  2 24  1  0
  2  3  1  0
  3  4  1  0
  3 29  1  0
  3 30  1  0
  4 20  1  0
  4  5  1  0
  4 31  1  6
  5  6  1  0
  5 21  1  0
  5 32  1  6
  6  7  1  0
  6 33  1  0
  6 34  1  0
  7  8  2  0
  7  9  1  0
  9 16  1  0
  9 20  1  0
  9 10  1  1
 10 11  1  0
 10 35  1  0
 10 36  1  0
 11 12  1  0
 11 37  1  0
 11 38  1  0
 12 13  1  0
 12 39  1  0
 12 40  1  0
 13 14  1  0
 13 15  1  0
 13 16  1  0
 14 41  1  0
 14 42  1  0
 14 43  1  0
 15 44  1  0
 15 45  1  0
 15 46  1  0
 16 18  1  0
 16 17  1  1
 17 18  1  0
 18 19  1  0
 18 47  1  1
 19 20  1  0
 19 48  1  0
 19 49  1  0
 20 50  1  6
 21 22  1  0
 21 51  1  6
 22 23  1  0
 22 52  1  0
 22 53  1  0
 23 24  1  0
 23 54  1  0
 23 55  1  0
 24 25  1  0
 24 56  1  1
 25 57  1  0
M  END
>  <i_m_ct_stereo_status>  (266) 
1

>  <s_m_source_file>  (266) 
/var/tmp/pbs.5076255.sched01/tmp7yh4k8o6/114t33l0ocj.sdf

>  <i_m_source_file_index>  (266) 
12

>  <i_lp_mmshare_version>  (266) 
48012

>  <i_f3d_flags>  (266) 
0

>  <s_epik_input>  (266) 
W0NIMl0xW0NIMl1bQ0BASF0oW09IXSlbQ0BdKFtDSDNdKShbQ0gyXTIpW0NAQEhdMVtDQEBIXShbQ0gyXUMzPU8pW0NASF0yW0NAQEhdNFtDSDJdW0NAQEhdKE81KVtDQEBdNShbQ0BAXTM0NilDKFtDSDNdKShbQ0gzXSlbQ0gyXVtDSDJdW0NIMl02

>  <s_epik_cmdline>  (266) 
J2VwaWtfcHl0aG9uJywgJy1waHQnLCAnMi4wJywgJy1waCcsICc3LjAnLCAnLXRuJywgJzgnLCAnLW1hJywgJzIwMCcsICctaW1hZScsICc8aW5maWxlLm1hZT4nLCAnLW9tYWUnLCAnPG91dGZpbGUubWFlPic=

>  <r_lp_tautomer_probability>  (266) 
1

>  <r_epik_Ionization_Penalty>  (266) 
2.23537e-06

>  <r_epik_Ionization_Penalty_Charging>  (266) 
0

>  <r_epik_Ionization_Penalty_Neutral>  (266) 
2.23537e-06

>  <r_epik_State_Penalty>  (266) 
-0

>  <r_epik_Charging_Adjusted_Penalty>  (266) 
0

>  <i_epik_Tot_Q>  (266) 
0

>  <i_epik_Tot_abs_Q>  (266) 
0

>  <s_lp_Force_Field>  (266) 
OPLS3e

>  <r_lp_Energy>  (266) 
47.6152

>  <b_lp_Chiralities_Consistent>  (266) 
1

>  <s_lp_Variant>  (266) 
93:0-1

>  <s_i_glide_gridfile>  (266) 
pfpi4k_grid

>  <i_i_glide_lignum>  (266) 
12

>  <i_i_glide_rotatable_bonds>  (266) 
1

>  <r_i_docking_score>  (266) 
-2.38071

>  <r_i_glide_ligand_efficiency>  (266) 
-0.0952283

>  <r_i_glide_ligand_efficiency_sa>  (266) 
-0.278449

>  <r_i_glide_ligand_efficiency_ln>  (266) 
-0.564299

>  <r_i_glide_gscore>  (266) 
-2.38071

>  <r_i_glide_lipo>  (266) 
-0.228972

>  <r_i_glide_hbond>  (266) 
-0.236106

>  <r_i_glide_metal>  (266) 
-0

>  <r_i_glide_rewards>  (266) 
-1.0937

>  <r_i_glide_evdw>  (266) 
-10.4209

>  <r_i_glide_ecoul>  (266) 
-2.0059

>  <r_i_glide_erotb>  (266) 
0

>  <r_i_glide_esite>  (266) 
0

>  <r_i_glide_emodel>  (266) 
-15.9559

>  <r_i_glide_energy>  (266) 
-12.4268

>  <r_i_glide_einternal>  (266) 
0.331064

>  <r_i_glide_intrahb_reward>  (266) 
-0

>  <i_i_glide_confnum>  (266) 
2

>  <i_i_glide_posenum>  (266) 
16

>  <r_i_glide_eff_state_penalty>  (266) 
0

>  <ligand_id>  (266) 
93

>  <original_smiles>  (266) 
CC12CC3C(CC(=O)C45CCCC(C)(C)C46OC6CC35)C1CCC2O

>  <smiles>  (266) 
[H]OC1([H])C([H])([H])C([H])([H])C2([H])C3([H])C([H])([H])C(=O)C45C([H])([H])C([H])([H])C([H])([H])C(C([H])([H])[H])(C([H])([H])[H])C46OC6([H])C([H])([H])C5([H])C3([H])C([H])([H])C12C([H])([H])[H]

$$$$
94:0:0
     RDKit          3D

 41 43  0  0  1  0  0  0  0  0999 V2000
   -1.6141   -7.7004    2.8915 C   0  0  0  0  0  0  0  0  0  0  0  0
   -0.2591   -7.0654    3.0017 C   0  0  0  0  0  0  0  0  0  0  0  0
    0.3487   -6.4755    4.1502 C   0  0  0  0  0  0  0  0  0  0  0  0
    1.5863   -6.0873    3.7356 C   0  0  0  0  0  0  0  0  0  0  0  0
    2.6720   -5.4190    4.5451 C   0  0  0  0  0  0  0  0  0  0  0  0
    1.6780   -6.4367    2.3972 N   0  0  0  0  0  0  0  0  0  0  0  0
    2.7938   -6.3174    1.4713 C   0  0  2  0  0  0  0  0  0  0  0  0
    3.9634   -7.2338    1.8928 C   0  0  0  0  0  0  0  0  0  0  0  0
    5.2004   -7.0052    1.0184 C   0  0  0  0  0  0  0  0  0  0  0  0
    5.5572   -5.5087    0.9337 C   0  0  0  0  0  0  0  0  0  0  0  0
    4.4036   -4.7350    0.4231 N   0  0  0  0  0  0  0  0  0  0  0  0
    4.5035   -3.8732   -0.6073 C   0  0  0  0  0  0  0  0  0  0  0  0
    5.5655   -3.6861   -1.2185 O   0  0  0  0  0  0  0  0  0  0  0  0
    3.2497   -3.0799   -1.0030 C   0  0  0  0  0  0  0  0  0  0  0  0
    3.4148   -2.3198   -2.2142 N   0  0  0  0  0  0  0  0  0  0  0  0
    3.1528   -2.6436   -3.4695 C   0  0  0  0  0  0  0  0  0  0  0  0
    3.4326   -1.6792   -4.3270 N   0  0  0  0  0  0  0  0  0  0  0  0
    3.8666   -0.7105   -3.4648 C   0  0  0  0  0  0  0  0  0  0  0  0
    3.9121   -1.0572   -2.1861 N   0  0  0  0  0  0  0  0  0  0  0  0
    3.2176   -4.8445    1.2907 C   0  0  0  0  0  0  0  0  0  0  0  0
    0.5215   -6.9842    1.9458 N   0  0  0  0  0  0  0  0  0  0  0  0
   -2.1441   -7.6762    3.8488 H   0  0  0  0  0  0  0  0  0  0  0  0
   -1.5571   -8.7474    2.5735 H   0  0  0  0  0  0  0  0  0  0  0  0
   -2.2371   -7.1769    2.1669 H   0  0  0  0  0  0  0  0  0  0  0  0
   -0.0660   -6.3794    5.1377 H   0  0  0  0  0  0  0  0  0  0  0  0
    2.3582   -5.3142    5.5835 H   0  0  0  0  0  0  0  0  0  0  0  0
    2.8964   -4.4310    4.1636 H   0  0  0  0  0  0  0  0  0  0  0  0
    3.5835   -6.0027    4.5599 H   0  0  0  0  0  0  0  0  0  0  0  0
    2.4569   -6.6691    0.4883 H   0  0  0  0  0  0  0  0  0  0  0  0
    4.2702   -7.0341    2.9169 H   0  0  0  0  0  0  0  0  0  0  0  0
    3.6616   -8.2830    1.8563 H   0  0  0  0  0  0  0  0  0  0  0  0
    6.0408   -7.5658    1.4394 H   0  0  0  0  0  0  0  0  0  0  0  0
    5.0191   -7.3937    0.0166 H   0  0  0  0  0  0  0  0  0  0  0  0
    5.8523   -5.1268    1.9164 H   0  0  0  0  0  0  0  0  0  0  0  0
    6.4430   -5.4061    0.3108 H   0  0  0  0  0  0  0  0  0  0  0  0
    2.4283   -3.7719   -1.1759 H   0  0  0  0  0  0  0  0  0  0  0  0
    2.9475   -2.4004   -0.2057 H   0  0  0  0  0  0  0  0  0  0  0  0
    2.7344   -3.6015   -3.7584 H   0  0  0  0  0  0  0  0  0  0  0  0
    4.1901    0.2568   -3.8072 H   0  0  0  0  0  0  0  0  0  0  0  0
    2.3224   -4.3226    0.9288 H   0  0  0  0  0  0  0  0  0  0  0  0
    3.4939   -4.3606    2.2185 H   0  0  0  0  0  0  0  0  0  0  0  0
  1  2  1  0
  1 22  1  0
  1 23  1  0
  1 24  1  0
  2 21  2  0
  2  3  1  0
  3  4  2  0
  3 25  1  0
  4  5  1  0
  4  6  1  0
  5 26  1  0
  5 27  1  0
  5 28  1  0
  6  7  1  0
  6 21  1  0
  7 20  1  0
  7  8  1  0
  7 29  1  6
  8  9  1  0
  8 30  1  0
  8 31  1  0
  9 10  1  0
  9 32  1  0
  9 33  1  0
 10 11  1  0
 10 34  1  0
 10 35  1  0
 11 12  1  0
 11 20  1  0
 12 13  2  0
 12 14  1  0
 14 15  1  0
 14 36  1  0
 14 37  1  0
 15 19  1  0
 15 16  1  0
 16 17  2  0
 16 38  1  0
 17 18  1  0
 18 19  2  0
 18 39  1  0
 20 40  1  0
 20 41  1  0
M  END
>  <i_m_ct_stereo_status>  (267) 
1

>  <s_m_source_file>  (267) 
/var/tmp/pbs.5076255.sched01/tmp7yh4k8o6/114t33l0ocj.sdf

>  <i_m_source_file_index>  (267) 
13

>  <i_lp_mmshare_version>  (267) 
48012

>  <i_f3d_flags>  (267) 
0

>  <s_epik_input>  (267) 
W0NIM11jMVtjSF1jKFtDSDNdKW4objEpW0NAQEhdMltDSDJdW0NIMl1bQ0gyXU4oW0NIMl0yKUMoPU8pW0NIMl1uM1tjSF1uW2NIXW4z

>  <s_epik_cmdline>  (267) 
J2VwaWtfcHl0aG9uJywgJy1waHQnLCAnMi4wJywgJy1waCcsICc3LjAnLCAnLXRuJywgJzgnLCAnLW1hJywgJzIwMCcsICctaW1hZScsICc8aW5maWxlLm1hZT4nLCAnLW9tYWUnLCAnPG91dGZpbGUubWFlPic=

>  <r_lp_tautomer_probability>  (267) 
1

>  <r_epik_Ionization_Penalty>  (267) 
0.0135455

>  <r_epik_Ionization_Penalty_Charging>  (267) 
0

>  <r_epik_Ionization_Penalty_Neutral>  (267) 
0.0135455

>  <r_epik_State_Penalty>  (267) 
0.0105405

>  <r_epik_Charging_Adjusted_Penalty>  (267) 
0.0105405

>  <i_epik_Tot_Q>  (267) 
0

>  <i_epik_Tot_abs_Q>  (267) 
0

>  <s_lp_Force_Field>  (267) 
OPLS3e

>  <r_lp_Energy>  (267) 
2.14923

>  <b_lp_Chiralities_Consistent>  (267) 
1

>  <s_lp_Variant>  (267) 
94:0-1

>  <s_i_glide_gridfile>  (267) 
pfpi4k_grid

>  <i_i_glide_lignum>  (267) 
13

>  <i_i_glide_rotatable_bonds>  (267) 
4

>  <r_i_docking_score>  (267) 
-3.77635

>  <r_i_glide_ligand_efficiency>  (267) 
-0.179826

>  <r_i_glide_ligand_efficiency_sa>  (267) 
-0.496127

>  <r_i_glide_ligand_efficiency_ln>  (267) 
-0.933695

>  <r_i_glide_gscore>  (267) 
-3.77635

>  <r_i_glide_lipo>  (267) 
-0.211584

>  <r_i_glide_hbond>  (267) 
-0.265386

>  <r_i_glide_metal>  (267) 
-0

>  <r_i_glide_rewards>  (267) 
-2.06657

>  <r_i_glide_evdw>  (267) 
-28.8973

>  <r_i_glide_ecoul>  (267) 
-4.01503

>  <r_i_glide_erotb>  (267) 
0.87516

>  <r_i_glide_esite>  (267) 
-0.060844

>  <r_i_glide_emodel>  (267) 
-39.231

>  <r_i_glide_energy>  (267) 
-32.9123

>  <r_i_glide_einternal>  (267) 
1.92275

>  <r_i_glide_intrahb_reward>  (267) 
-0

>  <i_i_glide_confnum>  (267) 
3

>  <i_i_glide_posenum>  (267) 
12

>  <r_i_glide_eff_state_penalty>  (267) 
0

>  <ligand_id>  (267) 
94

>  <original_smiles>  (267) 
Cc1cc(C)n(C2CCCN(C(=O)Cn3cncn3)C2)n1

>  <smiles>  (267) 
[H]c1nc([H])n(C([H])([H])C(=O)N2C([H])([H])C([H])([H])C([H])([H])C([H])(n3nc(C([H])([H])[H])c([H])c3C([H])([H])[H])C2([H])[H])n1

$$$$
94:0:1
     RDKit          3D

 41 43  0  0  1  0  0  0  0  0999 V2000
   -1.7511   -8.6065    2.3853 C   0  0  0  0  0  0  0  0  0  0  0  0
   -0.9178   -7.8359    3.3803 C   0  0  0  0  0  0  0  0  0  0  0  0
   -0.5805   -8.1868    4.7086 C   0  0  0  0  0  0  0  0  0  0  0  0
    0.1969   -7.1639    5.1719 C   0  0  0  0  0  0  0  0  0  0  0  0
    0.8481   -7.0185    6.5226 C   0  0  0  0  0  0  0  0  0  0  0  0
    0.2892   -6.2570    4.1213 N   0  0  0  0  0  0  0  0  0  0  0  0
    1.0236   -4.9900    4.0357 C   0  0  2  0  0  0  0  0  0  0  0  0
    2.5406   -5.2477    4.1162 C   0  0  0  0  0  0  0  0  0  0  0  0
    3.3193   -3.9256    4.1702 C   0  0  0  0  0  0  0  0  0  0  0  0
    2.7759   -3.0096    5.2830 C   0  0  0  0  0  0  0  0  0  0  0  0
    1.3301   -2.7556    5.0825 N   0  0  0  0  0  0  0  0  0  0  0  0
    0.8143   -1.4994    5.0548 C   0  0  0  0  0  0  0  0  0  0  0  0
    1.5218   -0.4894    5.0866 O   0  0  0  0  0  0  0  0  0  0  0  0
   -0.7203   -1.3491    5.0520 C   0  0  0  0  0  0  0  0  0  0  0  0
   -1.1819    0.0138    5.2489 N   0  0  0  0  0  0  0  0  0  0  0  0
   -1.3429    1.0150    4.3745 C   0  0  0  0  0  0  0  0  0  0  0  0
   -1.7743    2.1335    4.9352 N   0  0  0  0  0  0  0  0  0  0  0  0
   -1.8435    1.7240    6.2333 C   0  0  0  0  0  0  0  0  0  0  0  0
   -1.5225    0.4576    6.4726 N   0  0  0  0  0  0  0  0  0  0  0  0
    0.5161   -3.9881    5.1009 C   0  0  0  0  0  0  0  0  0  0  0  0
   -0.4025   -6.6749    3.0357 N   0  0  0  0  0  0  0  0  0  0  0  0
   -2.0768   -9.5644    2.8026 H   0  0  0  0  0  0  0  0  0  0  0  0
   -1.1885   -8.8120    1.4747 H   0  0  0  0  0  0  0  0  0  0  0  0
   -2.6393   -8.0469    2.0965 H   0  0  0  0  0  0  0  0  0  0  0  0
   -0.8630   -9.0857    5.2493 H   0  0  0  0  0  0  0  0  0  0  0  0
    0.6478   -7.9065    7.1332 H   0  0  0  0  0  0  0  0  0  0  0  0
    0.4632   -6.1482    7.0558 H   0  0  0  0  0  0  0  0  0  0  0  0
    1.9295   -6.9297    6.4310 H   0  0  0  0  0  0  0  0  0  0  0  0
    0.8161   -4.5441    3.0522 H   0  0  0  0  0  0  0  0  0  0  0  0
    2.7951   -5.8031    5.0150 H   0  0  0  0  0  0  0  0  0  0  0  0
    2.8628   -5.8417    3.2532 H   0  0  0  0  0  0  0  0  0  0  0  0
    4.3686   -4.1557    4.3635 H   0  0  0  0  0  0  0  0  0  0  0  0
    3.2697   -3.4055    3.2089 H   0  0  0  0  0  0  0  0  0  0  0  0
    2.9338   -3.4611    6.2685 H   0  0  0  0  0  0  0  0  0  0  0  0
    3.3712   -2.0963    5.2938 H   0  0  0  0  0  0  0  0  0  0  0  0
   -1.0871   -1.7055    4.0897 H   0  0  0  0  0  0  0  0  0  0  0  0
   -1.1784   -1.9692    5.8254 H   0  0  0  0  0  0  0  0  0  0  0  0
   -1.1527    0.8949    3.3086 H   0  0  0  0  0  0  0  0  0  0  0  0
   -2.1724    2.3888    7.0205 H   0  0  0  0  0  0  0  0  0  0  0  0
   -0.5435   -3.8223    4.8742 H   0  0  0  0  0  0  0  0  0  0  0  0
    0.5770   -4.3673    6.1176 H   0  0  0  0  0  0  0  0  0  0  0  0
  1  2  1  0
  1 22  1  0
  1 23  1  0
  1 24  1  0
  2 21  2  0
  2  3  1  0
  3  4  2  0
  3 25  1  0
  4  5  1  0
  4  6  1  0
  5 26  1  0
  5 27  1  0
  5 28  1  0
  6  7  1  0
  6 21  1  0
  7 20  1  0
  7  8  1  0
  7 29  1  6
  8  9  1  0
  8 30  1  0
  8 31  1  0
  9 10  1  0
  9 32  1  0
  9 33  1  0
 10 11  1  0
 10 34  1  0
 10 35  1  0
 11 12  1  0
 11 20  1  0
 12 13  2  0
 12 14  1  0
 14 15  1  0
 14 36  1  0
 14 37  1  0
 15 19  1  0
 15 16  1  0
 16 17  2  0
 16 38  1  0
 17 18  1  0
 18 19  2  0
 18 39  1  0
 20 40  1  0
 20 41  1  0
M  END
>  <i_m_ct_stereo_status>  (268) 
1

>  <s_m_source_file>  (268) 
/var/tmp/pbs.5076255.sched01/tmp7yh4k8o6/114t33l0ocj.sdf

>  <i_m_source_file_index>  (268) 
13

>  <i_lp_mmshare_version>  (268) 
48012

>  <i_f3d_flags>  (268) 
0

>  <s_epik_input>  (268) 
W0NIM11jMVtjSF1jKFtDSDNdKW4objEpW0NAQEhdMltDSDJdW0NIMl1bQ0gyXU4oW0NIMl0yKUMoPU8pW0NIMl1uM1tjSF1uW2NIXW4z

>  <s_epik_cmdline>  (268) 
J2VwaWtfcHl0aG9uJywgJy1waHQnLCAnMi4wJywgJy1waCcsICc3LjAnLCAnLXRuJywgJzgnLCAnLW1hJywgJzIwMCcsICctaW1hZScsICc8aW5maWxlLm1hZT4nLCAnLW9tYWUnLCAnPG91dGZpbGUubWFlPic=

>  <r_lp_tautomer_probability>  (268) 
1

>  <r_epik_Ionization_Penalty>  (268) 
0.0135455

>  <r_epik_Ionization_Penalty_Charging>  (268) 
0

>  <r_epik_Ionization_Penalty_Neutral>  (268) 
0.0135455

>  <r_epik_State_Penalty>  (268) 
0.0105405

>  <r_epik_Charging_Adjusted_Penalty>  (268) 
0.0105405

>  <i_epik_Tot_Q>  (268) 
0

>  <i_epik_Tot_abs_Q>  (268) 
0

>  <s_lp_Force_Field>  (268) 
OPLS3e

>  <r_lp_Energy>  (268) 
2.14923

>  <b_lp_Chiralities_Consistent>  (268) 
1

>  <s_lp_Variant>  (268) 
94:0-1

>  <s_i_glide_gridfile>  (268) 
pfpi4k_grid

>  <i_i_glide_lignum>  (268) 
13

>  <i_i_glide_rotatable_bonds>  (268) 
4

>  <r_i_docking_score>  (268) 
-3.27169

>  <r_i_glide_ligand_efficiency>  (268) 
-0.155795

>  <r_i_glide_ligand_efficiency_sa>  (268) 
-0.429826

>  <r_i_glide_ligand_efficiency_ln>  (268) 
-0.808918

>  <r_i_glide_gscore>  (268) 
-3.27169

>  <r_i_glide_lipo>  (268) 
-0.217985

>  <r_i_glide_hbond>  (268) 
-0.32

>  <r_i_glide_metal>  (268) 
-0

>  <r_i_glide_rewards>  (268) 
-1.44631

>  <r_i_glide_evdw>  (268) 
-20.0834

>  <r_i_glide_ecoul>  (268) 
-6.91469

>  <r_i_glide_erotb>  (268) 
0.87516

>  <r_i_glide_esite>  (268) 
-0.12118

>  <r_i_glide_emodel>  (268) 
-32.5455

>  <r_i_glide_energy>  (268) 
-26.9981

>  <r_i_glide_einternal>  (268) 
1.78539

>  <r_i_glide_intrahb_reward>  (268) 
-0

>  <i_i_glide_confnum>  (268) 
3

>  <i_i_glide_posenum>  (268) 
17

>  <r_i_glide_eff_state_penalty>  (268) 
0

>  <ligand_id>  (268) 
94

>  <original_smiles>  (268) 
Cc1cc(C)n(C2CCCN(C(=O)Cn3cncn3)C2)n1

>  <smiles>  (268) 
[H]c1nc([H])n(C([H])([H])C(=O)N2C([H])([H])C([H])([H])C([H])([H])C([H])(n3nc(C([H])([H])[H])c([H])c3C([H])([H])[H])C2([H])[H])n1

$$$$
94:0:2
     RDKit          3D

 41 43  0  0  1  0  0  0  0  0999 V2000
   -0.5338   -7.8115    2.3831 C   0  0  0  0  0  0  0  0  0  0  0  0
    0.9418   -7.7460    2.1413 C   0  0  0  0  0  0  0  0  0  0  0  0
    1.8323   -8.7689    1.7123 C   0  0  0  0  0  0  0  0  0  0  0  0
    3.0507   -8.1512    1.6286 C   0  0  0  0  0  0  0  0  0  0  0  0
    4.3845   -8.6908    1.2023 C   0  0  0  0  0  0  0  0  0  0  0  0
    2.8555   -6.8324    1.9858 N   0  0  0  0  0  0  0  0  0  0  0  0
    3.8270   -5.7450    2.0362 C   0  0  2  0  0  0  0  0  0  0  0  0
    4.6479   -5.7847    3.3330 C   0  0  0  0  0  0  0  0  0  0  0  0
    5.6136   -4.5920    3.3932 C   0  0  0  0  0  0  0  0  0  0  0  0
    4.8763   -3.2583    3.1740 C   0  0  0  0  0  0  0  0  0  0  0  0
    4.1162   -3.2813    1.9122 N   0  0  0  0  0  0  0  0  0  0  0  0
    4.2335   -2.3097    0.9682 C   0  0  0  0  0  0  0  0  0  0  0  0
    5.1248   -1.4622    1.0137 O   0  0  0  0  0  0  0  0  0  0  0  0
    3.1946   -2.1997   -0.1648 C   0  0  0  0  0  0  0  0  0  0  0  0
    3.7695   -2.3508   -1.4972 N   0  0  0  0  0  0  0  0  0  0  0  0
    3.6159   -1.5957   -2.5889 C   0  0  0  0  0  0  0  0  0  0  0  0
    4.2159   -2.0943   -3.6548 N   0  0  0  0  0  0  0  0  0  0  0  0
    4.7549   -3.2186   -3.1204 C   0  0  0  0  0  0  0  0  0  0  0  0
    4.5283   -3.4248   -1.8311 N   0  0  0  0  0  0  0  0  0  0  0  0
    3.1457   -4.3761    1.8313 C   0  0  0  0  0  0  0  0  0  0  0  0
    1.5637   -6.6016    2.3147 N   0  0  0  0  0  0  0  0  0  0  0  0
   -0.9284   -8.8034    2.1627 H   0  0  0  0  0  0  0  0  0  0  0  0
   -1.0649   -7.0972    1.7516 H   0  0  0  0  0  0  0  0  0  0  0  0
   -0.7768   -7.5755    3.4213 H   0  0  0  0  0  0  0  0  0  0  0  0
    1.6053   -9.8002    1.4800 H   0  0  0  0  0  0  0  0  0  0  0  0
    4.3129   -9.7423    0.9272 H   0  0  0  0  0  0  0  0  0  0  0  0
    5.1133   -8.6030    2.0050 H   0  0  0  0  0  0  0  0  0  0  0  0
    4.7630   -8.1432    0.3414 H   0  0  0  0  0  0  0  0  0  0  0  0
    4.5141   -5.8777    1.2004 H   0  0  0  0  0  0  0  0  0  0  0  0
    3.9796   -5.7609    4.1918 H   0  0  0  0  0  0  0  0  0  0  0  0
    5.2147   -6.7135    3.4049 H   0  0  0  0  0  0  0  0  0  0  0  0
    6.1295   -4.5873    4.3561 H   0  0  0  0  0  0  0  0  0  0  0  0
    6.3847   -4.7019    2.6284 H   0  0  0  0  0  0  0  0  0  0  0  0
    4.1889   -3.0794    4.0019 H   0  0  0  0  0  0  0  0  0  0  0  0
    5.6007   -2.4457    3.2209 H   0  0  0  0  0  0  0  0  0  0  0  0
    2.3521   -2.8775   -0.0760 H   0  0  0  0  0  0  0  0  0  0  0  0
    2.7758   -1.1935   -0.0846 H   0  0  0  0  0  0  0  0  0  0  0  0
    3.0039   -0.7056   -2.5860 H   0  0  0  0  0  0  0  0  0  0  0  0
    5.3391   -3.9097   -3.7148 H   0  0  0  0  0  0  0  0  0  0  0  0
    2.6499   -4.4452    0.8679 H   0  0  0  0  0  0  0  0  0  0  0  0
    2.3885   -4.1825    2.5955 H   0  0  0  0  0  0  0  0  0  0  0  0
  1  2  1  0
  1 22  1  0
  1 23  1  0
  1 24  1  0
  2 21  2  0
  2  3  1  0
  3  4  2  0
  3 25  1  0
  4  5  1  0
  4  6  1  0
  5 26  1  0
  5 27  1  0
  5 28  1  0
  6  7  1  0
  6 21  1  0
  7 20  1  0
  7  8  1  0
  7 29  1  6
  8  9  1  0
  8 30  1  0
  8 31  1  0
  9 10  1  0
  9 32  1  0
  9 33  1  0
 10 11  1  0
 10 34  1  0
 10 35  1  0
 11 12  1  0
 11 20  1  0
 12 13  2  0
 12 14  1  0
 14 15  1  0
 14 36  1  0
 14 37  1  0
 15 19  1  0
 15 16  1  0
 16 17  2  0
 16 38  1  0
 17 18  1  0
 18 19  2  0
 18 39  1  0
 20 40  1  0
 20 41  1  0
M  END
>  <i_m_ct_stereo_status>  (269) 
1

>  <s_m_source_file>  (269) 
/var/tmp/pbs.5076255.sched01/tmp7yh4k8o6/114t33l0ocj.sdf

>  <i_m_source_file_index>  (269) 
13

>  <i_lp_mmshare_version>  (269) 
48012

>  <i_f3d_flags>  (269) 
0

>  <s_epik_input>  (269) 
W0NIM11jMVtjSF1jKFtDSDNdKW4objEpW0NAQEhdMltDSDJdW0NIMl1bQ0gyXU4oW0NIMl0yKUMoPU8pW0NIMl1uM1tjSF1uW2NIXW4z

>  <s_epik_cmdline>  (269) 
J2VwaWtfcHl0aG9uJywgJy1waHQnLCAnMi4wJywgJy1waCcsICc3LjAnLCAnLXRuJywgJzgnLCAnLW1hJywgJzIwMCcsICctaW1hZScsICc8aW5maWxlLm1hZT4nLCAnLW9tYWUnLCAnPG91dGZpbGUubWFlPic=

>  <r_lp_tautomer_probability>  (269) 
1

>  <r_epik_Ionization_Penalty>  (269) 
0.0135455

>  <r_epik_Ionization_Penalty_Charging>  (269) 
0

>  <r_epik_Ionization_Penalty_Neutral>  (269) 
0.0135455

>  <r_epik_State_Penalty>  (269) 
0.0105405

>  <r_epik_Charging_Adjusted_Penalty>  (269) 
0.0105405

>  <i_epik_Tot_Q>  (269) 
0

>  <i_epik_Tot_abs_Q>  (269) 
0

>  <s_lp_Force_Field>  (269) 
OPLS3e

>  <r_lp_Energy>  (269) 
2.14923

>  <b_lp_Chiralities_Consistent>  (269) 
1

>  <s_lp_Variant>  (269) 
94:0-1

>  <s_i_glide_gridfile>  (269) 
pfpi4k_grid

>  <i_i_glide_lignum>  (269) 
13

>  <i_i_glide_rotatable_bonds>  (269) 
4

>  <r_i_docking_score>  (269) 
-2.71571

>  <r_i_glide_ligand_efficiency>  (269) 
-0.129319

>  <r_i_glide_ligand_efficiency_sa>  (269) 
-0.356782

>  <r_i_glide_ligand_efficiency_ln>  (269) 
-0.671453

>  <r_i_glide_gscore>  (269) 
-2.71571

>  <r_i_glide_lipo>  (269) 
-0.056947

>  <r_i_glide_hbond>  (269) 
0

>  <r_i_glide_metal>  (269) 
-0

>  <r_i_glide_rewards>  (269) 
-1.68757

>  <r_i_glide_evdw>  (269) 
-25.4366

>  <r_i_glide_ecoul>  (269) 
-3.24747

>  <r_i_glide_erotb>  (269) 
0.87516

>  <r_i_glide_esite>  (269) 
-0.0873975

>  <r_i_glide_emodel>  (269) 
-32.6075

>  <r_i_glide_energy>  (269) 
-28.6841

>  <r_i_glide_einternal>  (269) 
2.71392

>  <r_i_glide_intrahb_reward>  (269) 
-0

>  <i_i_glide_confnum>  (269) 
4

>  <i_i_glide_posenum>  (269) 
1

>  <r_i_glide_eff_state_penalty>  (269) 
0

>  <ligand_id>  (269) 
94

>  <original_smiles>  (269) 
Cc1cc(C)n(C2CCCN(C(=O)Cn3cncn3)C2)n1

>  <smiles>  (269) 
[H]c1nc([H])n(C([H])([H])C(=O)N2C([H])([H])C([H])([H])C([H])([H])C([H])(n3nc(C([H])([H])[H])c([H])c3C([H])([H])[H])C2([H])[H])n1

$$$$
94:1:0
     RDKit          3D

 42 44  0  0  1  0  0  0  0  0999 V2000
    2.9918   -0.8099   -4.2163 C   0  0  0  0  0  0  0  0  0  0  0  0
    3.5642   -1.6614   -3.1271 C   0  0  0  0  0  0  0  0  0  0  0  0
    4.7916   -2.3071   -3.0314 C   0  0  0  0  0  0  0  0  0  0  0  0
    4.9189   -2.9855   -1.8289 C   0  0  0  0  0  0  0  0  0  0  0  0
    6.0878   -3.7679   -1.3212 C   0  0  0  0  0  0  0  0  0  0  0  0
    3.7179   -2.7596   -1.1861 N   0  0  0  0  0  0  0  0  0  0  0  0
    3.1983   -3.2101    0.1082 C   0  0  2  0  0  0  0  0  0  0  0  0
    4.0949   -2.6874    1.2557 C   0  0  0  0  0  0  0  0  0  0  0  0
    3.6738   -3.2817    2.5924 C   0  0  0  0  0  0  0  0  0  0  0  0
    3.6303   -4.8159    2.5109 C   0  0  0  0  0  0  0  0  0  0  0  0
    2.6747   -5.2363    1.4703 N   0  0  0  0  0  0  0  0  0  0  0  0
    1.6402   -6.0983    1.6404 C   0  0  0  0  0  0  0  0  0  0  0  0
    0.7940   -6.2543    0.7577 O   0  0  0  0  0  0  0  0  0  0  0  0
    1.5668   -6.9634    2.9193 C   0  0  0  0  0  0  0  0  0  0  0  0
    0.2274   -7.4122    3.2230 N   0  0  0  0  0  0  0  0  0  0  0  0
   -0.6724   -6.8694    4.0422 C   0  0  0  0  0  0  0  0  0  0  0  0
   -1.8006   -7.5485    4.0827 N   0  0  0  0  0  0  0  0  0  0  0  0
   -1.4999   -8.5889    3.2611 C   0  0  0  0  0  0  0  0  0  0  0  0
   -0.2925   -8.5325    2.6799 N   0  0  0  0  0  0  0  0  0  0  0  0
    3.0319   -4.7519    0.1277 C   0  0  0  0  0  0  0  0  0  0  0  0
    2.9446   -1.9601   -1.9507 N   0  0  0  0  0  0  0  0  0  0  0  0
    3.6951   -0.6791   -5.0391 H   0  0  0  0  0  0  0  0  0  0  0  0
    2.7244    0.1773   -3.8347 H   0  0  0  0  0  0  0  0  0  0  0  0
    2.0902   -1.2654   -4.6268 H   0  0  0  0  0  0  0  0  0  0  0  0
    5.5528   -2.2740   -3.7938 H   0  0  0  0  0  0  0  0  0  0  0  0
    6.8820   -3.7901   -2.0766 H   0  0  0  0  0  0  0  0  0  0  0  0
    5.7983   -4.7948   -1.1091 H   0  0  0  0  0  0  0  0  0  0  0  0
    6.5052   -3.3296   -0.4154 H   0  0  0  0  0  0  0  0  0  0  0  0
    2.2111   -2.7628    0.2178 H   0  0  0  0  0  0  0  0  0  0  0  0
    5.1372   -2.9956    1.1285 H   0  0  0  0  0  0  0  0  0  0  0  0
    4.0760   -1.5876    1.2892 H   0  0  0  0  0  0  0  0  0  0  0  0
    4.4091   -2.9892    3.3368 H   0  0  0  0  0  0  0  0  0  0  0  0
    2.7089   -2.8879    2.9090 H   0  0  0  0  0  0  0  0  0  0  0  0
    4.6141   -5.2406    2.2759 H   0  0  0  0  0  0  0  0  0  0  0  0
    3.3947   -5.1425    3.5188 H   0  0  0  0  0  0  0  0  0  0  0  0
    2.2244   -7.8337    2.8072 H   0  0  0  0  0  0  0  0  0  0  0  0
    1.8958   -6.4216    3.7978 H   0  0  0  0  0  0  0  0  0  0  0  0
   -0.4704   -5.9869    4.6291 H   0  0  0  0  0  0  0  0  0  0  0  0
   -2.1798   -9.3966    3.0811 H   0  0  0  0  0  0  0  0  0  0  0  0
    2.3286   -5.0416   -0.6662 H   0  0  0  0  0  0  0  0  0  0  0  0
    3.9622   -5.2700   -0.1107 H   0  0  0  0  0  0  0  0  0  0  0  0
    2.0163   -1.6360   -1.6172 H   0  0  0  0  0  0  0  0  0  0  0  0
  1  2  1  0
  1 22  1  0
  1 23  1  0
  1 24  1  0
  2 21  2  0
  2  3  1  0
  3  4  2  0
  3 25  1  0
  4  5  1  0
  4  6  1  0
  5 26  1  0
  5 27  1  0
  5 28  1  0
  6  7  1  0
  6 21  1  0
  7 20  1  0
  7  8  1  0
  7 29  1  1
  8  9  1  0
  8 30  1  0
  8 31  1  0
  9 10  1  0
  9 32  1  0
  9 33  1  0
 10 11  1  0
 10 34  1  0
 10 35  1  0
 11 12  1  0
 11 20  1  0
 12 13  2  0
 12 14  1  0
 14 15  1  0
 14 36  1  0
 14 37  1  0
 15 19  1  0
 15 16  1  0
 16 17  2  0
 16 38  1  0
 17 18  1  0
 18 19  2  0
 18 39  1  0
 20 40  1  0
 20 41  1  0
 21 42  1  0
M  CHG  1  21   1
M  END
>  <i_m_ct_stereo_status>  (270) 
1

>  <s_m_source_file>  (270) 
/var/tmp/pbs.5076255.sched01/tmp7yh4k8o6/114t33l0ocj.sdf

>  <i_m_source_file_index>  (270) 
14

>  <i_lp_mmshare_version>  (270) 
48012

>  <i_f3d_flags>  (270) 
0

>  <s_epik_input>  (270) 
W0NIM11jMVtjSF1jKFtDSDNdKW4objEpW0NAQEhdMltDSDJdW0NIMl1bQ0gyXU4oW0NIMl0yKUMoPU8pW0NIMl1uM1tjSF1uW2NIXW4z

>  <s_epik_cmdline>  (270) 
J2VwaWtfcHl0aG9uJywgJy1waHQnLCAnMi4wJywgJy1waCcsICc3LjAnLCAnLXRuJywgJzgnLCAnLW1hJywgJzIwMCcsICctaW1hZScsICc8aW5maWxlLm1hZT4nLCAnLW9tYWUnLCAnPG91dGZpbGUubWFlPic=

>  <r_lp_tautomer_probability>  (270) 
1

>  <r_epik_Ionization_Penalty>  (270) 
2.24572

>  <r_epik_Ionization_Penalty_Charging>  (270) 
2.24571

>  <r_epik_Ionization_Penalty_Neutral>  (270) 
8.55264e-06

>  <r_epik_State_Penalty>  (270) 
2.39245

>  <r_epik_Charging_Adjusted_Penalty>  (270) 
4.63815

>  <i_epik_Tot_Q>  (270) 
1

>  <i_epik_Tot_abs_Q>  (270) 
1

>  <s_lp_Force_Field>  (270) 
OPLS3e

>  <r_lp_Energy>  (270) 
11.63

>  <b_lp_Chiralities_Consistent>  (270) 
1

>  <s_lp_Variant>  (270) 
94:0-2

>  <s_i_glide_gridfile>  (270) 
pfpi4k_grid

>  <i_i_glide_lignum>  (270) 
14

>  <i_i_glide_rotatable_bonds>  (270) 
4

>  <r_i_docking_score>  (270) 
-4.19358

>  <r_i_glide_ligand_efficiency>  (270) 
-0.199694

>  <r_i_glide_ligand_efficiency_sa>  (270) 
-0.550942

>  <r_i_glide_ligand_efficiency_ln>  (270) 
-1.03686

>  <r_i_glide_gscore>  (270) 
-4.19358

>  <r_i_glide_lipo>  (270) 
-0.417283

>  <r_i_glide_hbond>  (270) 
-0.36

>  <r_i_glide_metal>  (270) 
-0

>  <r_i_glide_rewards>  (270) 
-1.43621

>  <r_i_glide_evdw>  (270) 
-24.8635

>  <r_i_glide_ecoul>  (270) 
-8.44916

>  <r_i_glide_erotb>  (270) 
0.869854

>  <r_i_glide_esite>  (270) 
-0.339399

>  <r_i_glide_emodel>  (270) 
-43.9145

>  <r_i_glide_energy>  (270) 
-33.3126

>  <r_i_glide_einternal>  (270) 
1.97607

>  <r_i_glide_intrahb_reward>  (270) 
-0

>  <i_i_glide_confnum>  (270) 
3

>  <i_i_glide_posenum>  (270) 
37

>  <r_i_glide_eff_state_penalty>  (270) 
0

>  <ligand_id>  (270) 
94

>  <original_smiles>  (270) 
Cc1cc(C)n(C2CCCN(C(=O)Cn3cncn3)C2)n1

>  <smiles>  (270) 
[H]c1nc([H])n(C([H])([H])C(=O)N2C([H])([H])C([H])([H])C([H])([H])C([H])(n3c(C([H])([H])[H])c([H])c(C([H])([H])[H])[n+]3[H])C2([H])[H])n1

$$$$
94:1:1
     RDKit          3D

 42 44  0  0  1  0  0  0  0  0999 V2000
   -1.6025    2.1838    2.8287 C   0  0  0  0  0  0  0  0  0  0  0  0
   -0.5863    1.2527    3.3948 C   0  0  0  0  0  0  0  0  0  0  0  0
   -0.4656    0.6703    4.6594 C   0  0  0  0  0  0  0  0  0  0  0  0
    0.6667   -0.1494    4.7058 C   0  0  0  0  0  0  0  0  0  0  0  0
    1.2340   -0.9711    5.8180 C   0  0  0  0  0  0  0  0  0  0  0  0
    1.2123   -0.0651    3.4559 N   0  0  0  0  0  0  0  0  0  0  0  0
    2.4344   -0.6858    2.9180 C   0  0  2  0  0  0  0  0  0  0  0  0
    3.6564    0.2141    3.1661 C   0  0  0  0  0  0  0  0  0  0  0  0
    4.9093   -0.4084    2.5387 C   0  0  0  0  0  0  0  0  0  0  0  0
    4.6971   -0.7066    1.0458 C   0  0  0  0  0  0  0  0  0  0  0  0
    3.5348   -1.5909    0.8694 N   0  0  0  0  0  0  0  0  0  0  0  0
    3.5276   -2.7575    0.1791 C   0  0  0  0  0  0  0  0  0  0  0  0
    2.6133   -3.5777    0.2916 O   0  0  0  0  0  0  0  0  0  0  0  0
    4.6157   -3.0494   -0.8682 C   0  0  0  0  0  0  0  0  0  0  0  0
    4.3321   -2.3983   -2.1425 N   0  0  0  0  0  0  0  0  0  0  0  0
    3.9029   -2.9043   -3.3024 C   0  0  0  0  0  0  0  0  0  0  0  0
    3.8062   -2.0113   -4.2769 N   0  0  0  0  0  0  0  0  0  0  0  0
    4.1641   -0.8857   -3.5907 C   0  0  0  0  0  0  0  0  0  0  0  0
    4.5272   -1.0652   -2.3211 N   0  0  0  0  0  0  0  0  0  0  0  0
    2.2921   -1.0280    1.4248 C   0  0  0  0  0  0  0  0  0  0  0  0
    0.4786    0.7788    2.6925 N   0  0  0  0  0  0  0  0  0  0  0  0
   -2.3676    2.4258    3.5641 H   0  0  0  0  0  0  0  0  0  0  0  0
   -2.0877    1.7246    1.9677 H   0  0  0  0  0  0  0  0  0  0  0  0
   -1.1263    3.1063    2.4934 H   0  0  0  0  0  0  0  0  0  0  0  0
   -1.1465    0.8402    5.4769 H   0  0  0  0  0  0  0  0  0  0  0  0
    0.6395   -0.8822    6.7243 H   0  0  0  0  0  0  0  0  0  0  0  0
    2.2507   -0.6522    6.0391 H   0  0  0  0  0  0  0  0  0  0  0  0
    1.2693   -2.0187    5.5268 H   0  0  0  0  0  0  0  0  0  0  0  0
    2.5746   -1.6238    3.4572 H   0  0  0  0  0  0  0  0  0  0  0  0
    3.4874    1.2015    2.7297 H   0  0  0  0  0  0  0  0  0  0  0  0
    3.8145    0.3663    4.2366 H   0  0  0  0  0  0  0  0  0  0  0  0
    5.7641    0.2501    2.6676 H   0  0  0  0  0  0  0  0  0  0  0  0
    5.1644   -1.3301    3.0639 H   0  0  0  0  0  0  0  0  0  0  0  0
    4.5432    0.2159    0.4806 H   0  0  0  0  0  0  0  0  0  0  0  0
    5.6300   -1.1380    0.6953 H   0  0  0  0  0  0  0  0  0  0  0  0
    5.6213   -2.7878   -0.5472 H   0  0  0  0  0  0  0  0  0  0  0  0
    4.6437   -4.1266   -1.0396 H   0  0  0  0  0  0  0  0  0  0  0  0
    3.7007   -3.9604   -3.4365 H   0  0  0  0  0  0  0  0  0  0  0  0
    4.2014    0.0822   -4.0637 H   0  0  0  0  0  0  0  0  0  0  0  0
    1.4235   -1.6790    1.2899 H   0  0  0  0  0  0  0  0  0  0  0  0
    2.0805   -0.1152    0.8680 H   0  0  0  0  0  0  0  0  0  0  0  0
    0.7296    0.9873    1.7317 H   0  0  0  0  0  0  0  0  0  0  0  0
  1  2  1  0
  1 22  1  0
  1 23  1  0
  1 24  1  0
  2 21  2  0
  2  3  1  0
  3  4  2  0
  3 25  1  0
  4  5  1  0
  4  6  1  0
  5 26  1  0
  5 27  1  0
  5 28  1  0
  6  7  1  0
  6 21  1  0
  7 20  1  0
  7  8  1  0
  7 29  1  1
  8  9  1  0
  8 30  1  0
  8 31  1  0
  9 10  1  0
  9 32  1  0
  9 33  1  0
 10 11  1  0
 10 34  1  0
 10 35  1  0
 11 12  1  0
 11 20  1  0
 12 13  2  0
 12 14  1  0
 14 15  1  0
 14 36  1  0
 14 37  1  0
 15 19  1  0
 15 16  1  0
 16 17  2  0
 16 38  1  0
 17 18  1  0
 18 19  2  0
 18 39  1  0
 20 40  1  0
 20 41  1  0
 21 42  1  0
M  CHG  1  21   1
M  END
>  <i_m_ct_stereo_status>  (271) 
1

>  <s_m_source_file>  (271) 
/var/tmp/pbs.5076255.sched01/tmp7yh4k8o6/114t33l0ocj.sdf

>  <i_m_source_file_index>  (271) 
14

>  <i_lp_mmshare_version>  (271) 
48012

>  <i_f3d_flags>  (271) 
0

>  <s_epik_input>  (271) 
W0NIM11jMVtjSF1jKFtDSDNdKW4objEpW0NAQEhdMltDSDJdW0NIMl1bQ0gyXU4oW0NIMl0yKUMoPU8pW0NIMl1uM1tjSF1uW2NIXW4z

>  <s_epik_cmdline>  (271) 
J2VwaWtfcHl0aG9uJywgJy1waHQnLCAnMi4wJywgJy1waCcsICc3LjAnLCAnLXRuJywgJzgnLCAnLW1hJywgJzIwMCcsICctaW1hZScsICc8aW5maWxlLm1hZT4nLCAnLW9tYWUnLCAnPG91dGZpbGUubWFlPic=

>  <r_lp_tautomer_probability>  (271) 
1

>  <r_epik_Ionization_Penalty>  (271) 
2.24572

>  <r_epik_Ionization_Penalty_Charging>  (271) 
2.24571

>  <r_epik_Ionization_Penalty_Neutral>  (271) 
8.55264e-06

>  <r_epik_State_Penalty>  (271) 
2.39245

>  <r_epik_Charging_Adjusted_Penalty>  (271) 
4.63815

>  <i_epik_Tot_Q>  (271) 
1

>  <i_epik_Tot_abs_Q>  (271) 
1

>  <s_lp_Force_Field>  (271) 
OPLS3e

>  <r_lp_Energy>  (271) 
11.63

>  <b_lp_Chiralities_Consistent>  (271) 
1

>  <s_lp_Variant>  (271) 
94:0-2

>  <s_i_glide_gridfile>  (271) 
pfpi4k_grid

>  <i_i_glide_lignum>  (271) 
14

>  <i_i_glide_rotatable_bonds>  (271) 
4

>  <r_i_docking_score>  (271) 
-3.86751

>  <r_i_glide_ligand_efficiency>  (271) 
-0.184167

>  <r_i_glide_ligand_efficiency_sa>  (271) 
-0.508103

>  <r_i_glide_ligand_efficiency_ln>  (271) 
-0.956234

>  <r_i_glide_gscore>  (271) 
-3.86751

>  <r_i_glide_lipo>  (271) 
-0.248737

>  <r_i_glide_hbond>  (271) 
-0.32

>  <r_i_glide_metal>  (271) 
-0

>  <r_i_glide_rewards>  (271) 
-1.97467

>  <r_i_glide_evdw>  (271) 
-26.7493

>  <r_i_glide_ecoul>  (271) 
-4.95868

>  <r_i_glide_erotb>  (271) 
0.869854

>  <r_i_glide_esite>  (271) 
-0.112684

>  <r_i_glide_emodel>  (271) 
-41.4527

>  <r_i_glide_energy>  (271) 
-31.708

>  <r_i_glide_einternal>  (271) 
2.34191

>  <r_i_glide_intrahb_reward>  (271) 
-0

>  <i_i_glide_confnum>  (271) 
6

>  <i_i_glide_posenum>  (271) 
3

>  <r_i_glide_eff_state_penalty>  (271) 
0

>  <ligand_id>  (271) 
94

>  <original_smiles>  (271) 
Cc1cc(C)n(C2CCCN(C(=O)Cn3cncn3)C2)n1

>  <smiles>  (271) 
[H]c1nc([H])n(C([H])([H])C(=O)N2C([H])([H])C([H])([H])C([H])([H])C([H])(n3c(C([H])([H])[H])c([H])c(C([H])([H])[H])[n+]3[H])C2([H])[H])n1

$$$$
94:1:2
     RDKit          3D

 42 44  0  0  1  0  0  0  0  0999 V2000
   -1.8114   -8.6392    3.8358 C   0  0  0  0  0  0  0  0  0  0  0  0
   -0.3672   -8.2630    3.7930 C   0  0  0  0  0  0  0  0  0  0  0  0
    0.5609   -8.0904    4.8138 C   0  0  0  0  0  0  0  0  0  0  0  0
    1.8039   -7.7216    4.2856 C   0  0  0  0  0  0  0  0  0  0  0  0
    3.0866   -7.4349    5.0225 C   0  0  0  0  0  0  0  0  0  0  0  0
    1.6057   -7.6944    2.9232 N   0  0  0  0  0  0  0  0  0  0  0  0
    2.5193   -7.3767    1.8137 C   0  0  2  0  0  0  0  0  0  0  0  0
    3.7376   -8.3304    1.8344 C   0  0  0  0  0  0  0  0  0  0  0  0
    4.7646   -7.9211    0.7691 C   0  0  0  0  0  0  0  0  0  0  0  0
    5.1563   -6.4453    0.9468 C   0  0  0  0  0  0  0  0  0  0  0  0
    3.9536   -5.5907    0.8436 N   0  0  0  0  0  0  0  0  0  0  0  0
    3.8109   -4.5411    0.0027 C   0  0  0  0  0  0  0  0  0  0  0  0
    2.7758   -3.8625   -0.0234 O   0  0  0  0  0  0  0  0  0  0  0  0
    4.9984   -4.1340   -0.8939 C   0  0  0  0  0  0  0  0  0  0  0  0
    4.6629   -3.2044   -1.9525 N   0  0  0  0  0  0  0  0  0  0  0  0
    4.4454   -3.4375   -3.2488 C   0  0  0  0  0  0  0  0  0  0  0  0
    4.1732   -2.3431   -3.9362 N   0  0  0  0  0  0  0  0  0  0  0  0
    4.2215   -1.4182   -2.9393 C   0  0  0  0  0  0  0  0  0  0  0  0
    4.5575   -1.8708   -1.7350 N   0  0  0  0  0  0  0  0  0  0  0  0
    2.9380   -5.8870    1.8693 C   0  0  0  0  0  0  0  0  0  0  0  0
    0.3215   -8.0211    2.6339 N   0  0  0  0  0  0  0  0  0  0  0  0
   -2.1293   -8.7869    4.8658 H   0  0  0  0  0  0  0  0  0  0  0  0
   -1.9782   -9.5688    3.2817 H   0  0  0  0  0  0  0  0  0  0  0  0
   -2.4400   -7.8623    3.3950 H   0  0  0  0  0  0  0  0  0  0  0  0
    0.3526   -8.2311    5.8619 H   0  0  0  0  0  0  0  0  0  0  0  0
    2.9287   -7.4638    6.1106 H   0  0  0  0  0  0  0  0  0  0  0  0
    3.4483   -6.4323    4.7874 H   0  0  0  0  0  0  0  0  0  0  0  0
    3.8534   -8.1513    4.7518 H   0  0  0  0  0  0  0  0  0  0  0  0
    1.9496   -7.5267    0.8819 H   0  0  0  0  0  0  0  0  0  0  0  0
    4.2569   -8.2908    2.7741 H   0  0  0  0  0  0  0  0  0  0  0  0
    3.4088   -9.3680    1.6557 H   0  0  0  0  0  0  0  0  0  0  0  0
    5.6473   -8.5416    0.8998 H   0  0  0  0  0  0  0  0  0  0  0  0
    4.3931   -8.1002   -0.2518 H   0  0  0  0  0  0  0  0  0  0  0  0
    5.6225   -6.2697    1.9243 H   0  0  0  0  0  0  0  0  0  0  0  0
    5.9337   -6.2322    0.2201 H   0  0  0  0  0  0  0  0  0  0  0  0
    5.7969   -3.7066   -0.2807 H   0  0  0  0  0  0  0  0  0  0  0  0
    5.3938   -5.0215   -1.3784 H   0  0  0  0  0  0  0  0  0  0  0  0
    4.5340   -4.4293   -3.6808 H   0  0  0  0  0  0  0  0  0  0  0  0
    4.0533   -0.3722   -3.1245 H   0  0  0  0  0  0  0  0  0  0  0  0
    2.0402   -5.2638    1.7932 H   0  0  0  0  0  0  0  0  0  0  0  0
    3.3990   -5.6180    2.8193 H   0  0  0  0  0  0  0  0  0  0  0  0
   -0.0159   -8.0971    1.6864 H   0  0  0  0  0  0  0  0  0  0  0  0
  1  2  1  0
  1 22  1  0
  1 23  1  0
  1 24  1  0
  2 21  2  0
  2  3  1  0
  3  4  2  0
  3 25  1  0
  4  5  1  0
  4  6  1  0
  5 26  1  0
  5 27  1  0
  5 28  1  0
  6  7  1  0
  6 21  1  0
  7 20  1  0
  7  8  1  0
  7 29  1  6
  8  9  1  0
  8 30  1  0
  8 31  1  0
  9 10  1  0
  9 32  1  0
  9 33  1  0
 10 11  1  0
 10 34  1  0
 10 35  1  0
 11 12  1  0
 11 20  1  0
 12 13  2  0
 12 14  1  0
 14 15  1  0
 14 36  1  0
 14 37  1  0
 15 19  1  0
 15 16  1  0
 16 17  2  0
 16 38  1  0
 17 18  1  0
 18 19  2  0
 18 39  1  0
 20 40  1  0
 20 41  1  0
 21 42  1  0
M  CHG  1  21   1
M  END
>  <i_m_ct_stereo_status>  (272) 
1

>  <s_m_source_file>  (272) 
/var/tmp/pbs.5076255.sched01/tmp7yh4k8o6/114t33l0ocj.sdf

>  <i_m_source_file_index>  (272) 
14

>  <i_lp_mmshare_version>  (272) 
48012

>  <i_f3d_flags>  (272) 
0

>  <s_epik_input>  (272) 
W0NIM11jMVtjSF1jKFtDSDNdKW4objEpW0NAQEhdMltDSDJdW0NIMl1bQ0gyXU4oW0NIMl0yKUMoPU8pW0NIMl1uM1tjSF1uW2NIXW4z

>  <s_epik_cmdline>  (272) 
J2VwaWtfcHl0aG9uJywgJy1waHQnLCAnMi4wJywgJy1waCcsICc3LjAnLCAnLXRuJywgJzgnLCAnLW1hJywgJzIwMCcsICctaW1hZScsICc8aW5maWxlLm1hZT4nLCAnLW9tYWUnLCAnPG91dGZpbGUubWFlPic=

>  <r_lp_tautomer_probability>  (272) 
1

>  <r_epik_Ionization_Penalty>  (272) 
2.24572

>  <r_epik_Ionization_Penalty_Charging>  (272) 
2.24571

>  <r_epik_Ionization_Penalty_Neutral>  (272) 
8.55264e-06

>  <r_epik_State_Penalty>  (272) 
2.39245

>  <r_epik_Charging_Adjusted_Penalty>  (272) 
4.63815

>  <i_epik_Tot_Q>  (272) 
1

>  <i_epik_Tot_abs_Q>  (272) 
1

>  <s_lp_Force_Field>  (272) 
OPLS3e

>  <r_lp_Energy>  (272) 
11.63

>  <b_lp_Chiralities_Consistent>  (272) 
1

>  <s_lp_Variant>  (272) 
94:0-2

>  <s_i_glide_gridfile>  (272) 
pfpi4k_grid

>  <i_i_glide_lignum>  (272) 
14

>  <i_i_glide_rotatable_bonds>  (272) 
4

>  <r_i_docking_score>  (272) 
-3.2534

>  <r_i_glide_ligand_efficiency>  (272) 
-0.154924

>  <r_i_glide_ligand_efficiency_sa>  (272) 
-0.427423

>  <r_i_glide_ligand_efficiency_ln>  (272) 
-0.804396

>  <r_i_glide_gscore>  (272) 
-3.2534

>  <r_i_glide_lipo>  (272) 
-0.147278

>  <r_i_glide_hbond>  (272) 
-0.184276

>  <r_i_glide_metal>  (272) 
-0

>  <r_i_glide_rewards>  (272) 
-1.68782

>  <r_i_glide_evdw>  (272) 
-26.711

>  <r_i_glide_ecoul>  (272) 
-4.61254

>  <r_i_glide_erotb>  (272) 
0.869854

>  <r_i_glide_esite>  (272) 
-0.076449

>  <r_i_glide_emodel>  (272) 
-39.4218

>  <r_i_glide_energy>  (272) 
-31.3235

>  <r_i_glide_einternal>  (272) 
1.57658

>  <r_i_glide_intrahb_reward>  (272) 
-0

>  <i_i_glide_confnum>  (272) 
3

>  <i_i_glide_posenum>  (272) 
17

>  <r_i_glide_eff_state_penalty>  (272) 
0

>  <ligand_id>  (272) 
94

>  <original_smiles>  (272) 
Cc1cc(C)n(C2CCCN(C(=O)Cn3cncn3)C2)n1

>  <smiles>  (272) 
[H]c1nc([H])n(C([H])([H])C(=O)N2C([H])([H])C([H])([H])C([H])([H])C([H])(n3c(C([H])([H])[H])c([H])c(C([H])([H])[H])[n+]3[H])C2([H])[H])n1

$$$$
95:0:0
     RDKit          3D

 39 46  0  0  1  0  0  0  0  0999 V2000
    4.7874   -5.1775    4.5473 O   0  0  0  0  0  0  0  0  0  0  0  0
    3.7437   -4.1313    4.4773 S   0  0  0  0  0  0  0  0  0  0  0  0
    3.3903   -3.3021    5.6460 O   0  0  0  0  0  0  0  0  0  0  0  0
    4.0730   -3.1009    3.1721 N   0  0  0  0  0  0  0  0  0  0  0  0
    3.5772   -3.5713    1.8987 C   0  0  1  0  0  0  0  0  0  0  0  0
    3.4854   -2.5118    0.8306 C   0  0  2  0  0  0  0  0  0  0  0  0
    3.5547   -3.6497   -0.0242 O   0  0  0  0  0  0  0  0  0  0  0  0
    4.5633   -4.2609    0.8275 C   0  0  2  0  0  0  0  0  0  0  0  0
    5.0543   -4.4289   -0.6809 C   0  0  1  0  0  0  0  0  0  0  0  0
    5.0916   -3.4215   -1.9414 C   0  0  1  0  0  0  0  0  0  0  0  0
    3.8408   -2.6924   -2.3973 C   0  0  0  0  0  0  0  0  0  0  0  0
    3.7589   -1.4797   -1.8371 C   0  0  0  0  0  0  0  0  0  0  0  0
    4.9427   -1.2322   -0.9368 C   0  0  2  0  0  0  0  0  0  0  0  0
    5.9788   -2.2487   -1.4894 C   0  0  1  0  0  0  0  0  0  0  0  0
    6.7785   -2.8130   -0.2707 C   0  0  2  0  0  0  0  0  0  0  0  0
    6.3297   -3.9157   -0.0660 C   0  0  1  0  0  0  0  0  0  0  0  0
    5.9837   -2.4265    0.9459 C   0  0  1  0  0  0  0  0  0  0  0  0
    4.7092   -1.6016    0.5643 C   0  0  2  0  0  0  0  0  0  0  0  0
    5.9394   -3.6109    1.1336 C   0  0  1  0  0  0  0  0  0  0  0  0
    2.2659   -4.3063    2.3180 C   0  0  1  0  0  0  0  0  0  0  0  0
    1.9890   -5.4691    1.5831 O   0  0  0  0  0  0  0  0  0  0  0  0
    2.3341   -4.7275    3.7061 N   0  0  0  0  0  0  0  0  0  0  0  0
    1.1823   -4.2101    4.3558 O   0  0  0  0  0  0  0  0  0  0  0  0
    3.8233   -2.1472    3.3953 H   0  0  0  0  0  0  0  0  0  0  0  0
    2.5248   -2.0210    0.8254 H   0  0  0  0  0  0  0  0  0  0  0  0
    5.1778   -5.4732   -0.9810 H   0  0  0  0  0  0  0  0  0  0  0  0
    5.5602   -3.9189   -2.8007 H   0  0  0  0  0  0  0  0  0  0  0  0
    3.1450   -3.0974   -3.1079 H   0  0  0  0  0  0  0  0  0  0  0  0
    2.9976   -0.7424   -2.0293 H   0  0  0  0  0  0  0  0  0  0  0  0
    5.3393   -0.2292   -1.0139 H   0  0  0  0  0  0  0  0  0  0  0  0
    6.5858   -1.8536   -2.3007 H   0  0  0  0  0  0  0  0  0  0  0  0
    7.8743   -2.7306   -0.2667 H   0  0  0  0  0  0  0  0  0  0  0  0
    7.2714   -4.5267   -0.1553 H   0  0  0  0  0  0  0  0  0  0  0  0
    6.6157   -2.0632    1.7754 H   0  0  0  0  0  0  0  0  0  0  0  0
    4.6354   -0.7176    1.1792 H   0  0  0  0  0  0  0  0  0  0  0  0
    6.4272   -3.9415    2.0766 H   0  0  0  0  0  0  0  0  0  0  0  0
    1.4297   -3.6059    2.1854 H   0  0  0  0  0  0  0  0  0  0  0  0
    2.7275   -5.5976    1.0101 H   0  0  0  0  0  0  0  0  0  0  0  0
    1.3215   -3.2931    4.5528 H   0  0  0  0  0  0  0  0  0  0  0  0
  1  2  2  0
  2 22  1  0
  2  3  2  0
  2  4  1  0
  5  4  1  1
  4 24  1  0
  5  8  1  0
  5  6  1  0
  5 20  1  0
  6 18  1  0
  6  7  1  0
  6 25  1  1
  8  7  1  6
  8 19  1  0
  8  9  1  0
  9 16  1  0
  9 10  1  0
  9 26  1  6
 10 14  1  0
 10 11  1  0
 10 27  1  6
 11 12  2  0
 11 28  1  0
 12 13  1  0
 12 29  1  0
 13 18  1  0
 13 14  1  0
 13 30  1  1
 14 15  1  0
 14 31  1  6
 15 19  1  0
 15 16  1  0
 15 32  1  1
 16 17  1  0
 16 33  1  1
 17 18  1  0
 17 19  1  0
 17 34  1  1
 18 35  1  1
 19 36  1  1
 20 21  1  0
 20 22  1  0
 20 37  1  1
 21 38  1  0
 22 23  1  0
 23 39  1  0
M  END
>  <i_m_ct_stereo_status>  (273) 
1

>  <s_m_source_file>  (273) 
/var/tmp/pbs.5076255.sched01/tmp7yh4k8o6/114t33l0ocj.sdf

>  <i_m_source_file_index>  (273) 
15

>  <i_lp_mmshare_version>  (273) 
48012

>  <i_f3d_flags>  (273) 
2

>  <s_epik_input>  (273) 
W09IXVtDQEhdMU4oW09IXSlTKD1PKSg9TylbTkhdW0NAQF0xMltDQF0zNFtDQEBIXTVbQ0BASF02W0NASF03W0NAQEhdKFtDSF09W0NIXTYpW0NIXShbQ0BASF0yTzMpW0NASF04W0NASF01W0NAQEhdN1tDQEhdNDg=

>  <s_epik_cmdline>  (273) 
J2VwaWtfcHl0aG9uJywgJy1waHQnLCAnMi4wJywgJy1waCcsICc3LjAnLCAnLXRuJywgJzgnLCAnLW1hJywgJzIwMCcsICctaW1hZScsICc8aW5maWxlLm1hZT4nLCAnLW9tYWUnLCAnPG91dGZpbGUubWFlPic=

>  <r_epik_Ionization_Penalty>  (273) 
0.0144511

>  <r_epik_Ionization_Penalty_Charging>  (273) 
0

>  <r_epik_Ionization_Penalty_Neutral>  (273) 
0.0144511

>  <r_epik_State_Penalty>  (273) 
0.00514575

>  <r_epik_Charging_Adjusted_Penalty>  (273) 
0.00514575

>  <i_epik_Tot_Q>  (273) 
0

>  <i_epik_Tot_abs_Q>  (273) 
0

>  <s_epik_Chemistry_Notes>  (273) 
This compound contains an acetal/aminal-like group ( X-CH(R)-Y where X, Y are N, S, or O) that may be acid/base labile, releasing an aldehyde. This compound has a N-S or N-O group and may undergo hydrolysis at high or low pH.

>  <s_lp_Force_Field>  (273) 
OPLS3e

>  <r_lp_Energy>  (273) 
510.272

>  <b_lp_Chiralities_Consistent>  (273) 
0

>  <s_lp_Variant>  (273) 
95:0-1

>  <s_i_glide_gridfile>  (273) 
pfpi4k_grid

>  <i_i_glide_lignum>  (273) 
15

>  <i_i_glide_rotatable_bonds>  (273) 
2

>  <r_i_docking_score>  (273) 
-3.17491

>  <r_i_glide_ligand_efficiency>  (273) 
-0.138039

>  <r_i_glide_ligand_efficiency_sa>  (273) 
-0.392566

>  <r_i_glide_ligand_efficiency_ln>  (273) 
-0.767722

>  <r_i_glide_gscore>  (273) 
-3.17491

>  <r_i_glide_lipo>  (273) 
-0.472194

>  <r_i_glide_hbond>  (273) 
0

>  <r_i_glide_metal>  (273) 
-0

>  <r_i_glide_rewards>  (273) 
-1.1157

>  <r_i_glide_evdw>  (273) 
-23.0778

>  <r_i_glide_ecoul>  (273) 
-2.81628

>  <r_i_glide_erotb>  (273) 
0

>  <r_i_glide_esite>  (273) 
-0.0106794

>  <r_i_glide_emodel>  (273) 
-30.4548

>  <r_i_glide_energy>  (273) 
-25.8941

>  <r_i_glide_einternal>  (273) 
0.0836846

>  <r_i_glide_intrahb_reward>  (273) 
-0

>  <i_i_glide_confnum>  (273) 
4

>  <i_i_glide_posenum>  (273) 
36

>  <r_i_glide_eff_state_penalty>  (273) 
0

>  <ligand_id>  (273) 
95

>  <original_smiles>  (273) 
O=S1(=O)NC2(C3OC24C2C5C=CC6C5C5C2C(C63)C54)C(O)N1O

>  <smiles>  (273) 
[H]ON1C([H])(O[H])C2(N([H])S1(=O)=O)C1([H])OC23C2([H])C4([H])C([H])=C([H])C5([H])C1([H])C1([H])C2([H])C([H])(C54[H])C13[H]

$$$$
95:0:1
     RDKit          3D

 39 46  0  0  1  0  0  0  0  0999 V2000
    5.2968   -2.3461    4.8814 O   0  0  0  0  0  0  0  0  0  0  0  0
    4.3977   -1.2518    4.4653 S   0  0  0  0  0  0  0  0  0  0  0  0
    4.3179    0.0730    5.1345 O   0  0  0  0  0  0  0  0  0  0  0  0
    4.5938   -0.9821    2.8043 N   0  0  0  0  0  0  0  0  0  0  0  0
    3.8223   -1.8887    1.9360 C   0  0  1  0  0  0  0  0  0  0  0  0
    3.6565   -1.4097    0.5340 C   0  0  2  0  0  0  0  0  0  0  0  0
    3.4501   -2.7971    0.3032 O   0  0  0  0  0  0  0  0  0  0  0  0
    4.5379   -3.1351    1.2144 C   0  0  2  0  0  0  0  0  0  0  0  0
    4.7528   -4.0300   -0.0852 C   0  0  1  0  0  0  0  0  0  0  0  0
    4.6573   -3.7005   -1.6681 C   0  0  1  0  0  0  0  0  0  0  0  0
    3.4300   -3.0449   -2.2784 C   0  0  0  0  0  0  0  0  0  0  0  0
    3.5708   -1.7151   -2.3353 C   0  0  0  0  0  0  0  0  0  0  0  0
    4.9109   -1.2939   -1.7840 C   0  0  2  0  0  0  0  0  0  0  0  0
    5.7289   -2.6191   -1.9097 C   0  0  1  0  0  0  0  0  0  0  0  0
    6.6675   -2.7166   -0.6641 C   0  0  2  0  0  0  0  0  0  0  0  0
    6.1574   -3.5218    0.0765 C   0  0  1  0  0  0  0  0  0  0  0  0
    6.1395   -1.7027    0.3176 C   0  0  1  0  0  0  0  0  0  0  0  0
    4.9035   -0.9314   -0.2577 C   0  0  2  0  0  0  0  0  0  0  0  0
    6.0107   -2.6611    1.0376 C   0  0  1  0  0  0  0  0  0  0  0  0
    2.5245   -2.1045    2.7723 C   0  0  1  0  0  0  0  0  0  0  0  0
    2.0517   -3.4257    2.7148 O   0  0  0  0  0  0  0  0  0  0  0  0
    2.8074   -1.8638    4.2021 N   0  0  0  0  0  0  0  0  0  0  0  0
    1.8303   -0.9348    4.6593 O   0  0  0  0  0  0  0  0  0  0  0  0
    4.4595    0.0092    2.5668 H   0  0  0  0  0  0  0  0  0  0  0  0
    2.7621   -0.8062    0.3957 H   0  0  0  0  0  0  0  0  0  0  0  0
    4.7028   -5.1029    0.1167 H   0  0  0  0  0  0  0  0  0  0  0  0
    4.9193   -4.5895   -2.2383 H   0  0  0  0  0  0  0  0  0  0  0  0
    2.5842   -3.6036   -2.6364 H   0  0  0  0  0  0  0  0  0  0  0  0
    2.8627   -1.0209   -2.7579 H   0  0  0  0  0  0  0  0  0  0  0  0
    5.3854   -0.4974   -2.3609 H   0  0  0  0  0  0  0  0  0  0  0  0
    6.2324   -2.7289   -2.8768 H   0  0  0  0  0  0  0  0  0  0  0  0
    7.7547   -2.8330   -0.8138 H   0  0  0  0  0  0  0  0  0  0  0  0
    6.9875   -4.2764    0.1802 H   0  0  0  0  0  0  0  0  0  0  0  0
    6.9425   -1.1158    0.8099 H   0  0  0  0  0  0  0  0  0  0  0  0
    5.0222    0.1369   -0.1078 H   0  0  0  0  0  0  0  0  0  0  0  0
    6.6181   -2.6032    1.9746 H   0  0  0  0  0  0  0  0  0  0  0  0
    1.7509   -1.4251    2.4279 H   0  0  0  0  0  0  0  0  0  0  0  0
    2.5756   -3.8532    2.0565 H   0  0  0  0  0  0  0  0  0  0  0  0
    2.0888   -0.0773    4.3587 H   0  0  0  0  0  0  0  0  0  0  0  0
  1  2  2  0
  2 22  1  0
  2  3  2  0
  2  4  1  0
  5  4  1  1
  4 24  1  0
  5  8  1  0
  5  6  1  0
  5 20  1  0
  6 18  1  0
  6  7  1  0
  6 25  1  1
  8  7  1  6
  8 19  1  0
  8  9  1  0
  9 16  1  0
  9 10  1  0
  9 26  1  1
 10 14  1  0
 10 11  1  0
 10 27  1  6
 11 12  2  0
 11 28  1  0
 12 13  1  0
 12 29  1  0
 13 18  1  0
 13 14  1  0
 13 30  1  6
 14 15  1  0
 14 31  1  6
 15 19  1  0
 15 16  1  0
 15 32  1  1
 16 17  1  0
 16 33  1  1
 17 18  1  0
 17 19  1  0
 17 34  1  1
 18 35  1  6
 19 36  1  1
 20 21  1  0
 20 22  1  0
 20 37  1  6
 21 38  1  0
 22 23  1  0
 23 39  1  0
M  END
>  <i_m_ct_stereo_status>  (274) 
1

>  <s_m_source_file>  (274) 
/var/tmp/pbs.5076255.sched01/tmp7yh4k8o6/114t33l0ocj.sdf

>  <i_m_source_file_index>  (274) 
15

>  <i_lp_mmshare_version>  (274) 
48012

>  <i_f3d_flags>  (274) 
2

>  <s_epik_input>  (274) 
W09IXVtDQEhdMU4oW09IXSlTKD1PKSg9TylbTkhdW0NAQF0xMltDQF0zNFtDQEBIXTVbQ0BASF02W0NASF03W0NAQEhdKFtDSF09W0NIXTYpW0NIXShbQ0BASF0yTzMpW0NASF04W0NASF01W0NAQEhdN1tDQEhdNDg=

>  <s_epik_cmdline>  (274) 
J2VwaWtfcHl0aG9uJywgJy1waHQnLCAnMi4wJywgJy1waCcsICc3LjAnLCAnLXRuJywgJzgnLCAnLW1hJywgJzIwMCcsICctaW1hZScsICc8aW5maWxlLm1hZT4nLCAnLW9tYWUnLCAnPG91dGZpbGUubWFlPic=

>  <r_epik_Ionization_Penalty>  (274) 
0.0144511

>  <r_epik_Ionization_Penalty_Charging>  (274) 
0

>  <r_epik_Ionization_Penalty_Neutral>  (274) 
0.0144511

>  <r_epik_State_Penalty>  (274) 
0.00514575

>  <r_epik_Charging_Adjusted_Penalty>  (274) 
0.00514575

>  <i_epik_Tot_Q>  (274) 
0

>  <i_epik_Tot_abs_Q>  (274) 
0

>  <s_epik_Chemistry_Notes>  (274) 
This compound contains an acetal/aminal-like group ( X-CH(R)-Y where X, Y are N, S, or O) that may be acid/base labile, releasing an aldehyde. This compound has a N-S or N-O group and may undergo hydrolysis at high or low pH.

>  <s_lp_Force_Field>  (274) 
OPLS3e

>  <r_lp_Energy>  (274) 
510.272

>  <b_lp_Chiralities_Consistent>  (274) 
0

>  <s_lp_Variant>  (274) 
95:0-1

>  <s_i_glide_gridfile>  (274) 
pfpi4k_grid

>  <i_i_glide_lignum>  (274) 
15

>  <i_i_glide_rotatable_bonds>  (274) 
2

>  <r_i_docking_score>  (274) 
-2.90555

>  <r_i_glide_ligand_efficiency>  (274) 
-0.126328

>  <r_i_glide_ligand_efficiency_sa>  (274) 
-0.359261

>  <r_i_glide_ligand_efficiency_ln>  (274) 
-0.702589

>  <r_i_glide_gscore>  (274) 
-2.90555

>  <r_i_glide_lipo>  (274) 
-0.288586

>  <r_i_glide_hbond>  (274) 
0

>  <r_i_glide_metal>  (274) 
-0

>  <r_i_glide_rewards>  (274) 
-1.1369

>  <r_i_glide_evdw>  (274) 
-25.3666

>  <r_i_glide_ecoul>  (274) 
-1.37545

>  <r_i_glide_erotb>  (274) 
0

>  <r_i_glide_esite>  (274) 
-0.00541533

>  <r_i_glide_emodel>  (274) 
-30.921

>  <r_i_glide_energy>  (274) 
-26.742

>  <r_i_glide_einternal>  (274) 
0.0145648

>  <r_i_glide_intrahb_reward>  (274) 
-0

>  <i_i_glide_confnum>  (274) 
1

>  <i_i_glide_posenum>  (274) 
9

>  <r_i_glide_eff_state_penalty>  (274) 
0

>  <ligand_id>  (274) 
95

>  <original_smiles>  (274) 
O=S1(=O)NC2(C3OC24C2C5C=CC6C5C5C2C(C63)C54)C(O)N1O

>  <smiles>  (274) 
[H]ON1C([H])(O[H])C2(N([H])S1(=O)=O)C1([H])OC23C2([H])C4([H])C([H])=C([H])C5([H])C1([H])C1([H])C2([H])C([H])(C54[H])C13[H]

$$$$
95:0:2
     RDKit          3D

 39 46  0  0  1  0  0  0  0  0999 V2000
    5.7211   -5.3910    2.9640 O   0  0  0  0  0  0  0  0  0  0  0  0
    4.5822   -4.5386    3.2664 S   0  0  0  0  0  0  0  0  0  0  0  0
    4.3840   -3.9166    4.5716 O   0  0  0  0  0  0  0  0  0  0  0  0
    4.4628   -3.3237    2.0791 N   0  0  0  0  0  0  0  0  0  0  0  0
    3.7523   -3.7222    0.8714 C   0  0  1  0  0  0  0  0  0  0  0  0
    3.2760   -2.5848    0.0216 C   0  0  2  0  0  0  0  0  0  0  0  0
    3.2950   -3.5888   -0.9851 O   0  0  0  0  0  0  0  0  0  0  0  0
    4.5462   -4.1261   -0.4660 C   0  0  2  0  0  0  0  0  0  0  0  0
    4.7389   -4.0274   -2.0418 C   0  0  1  0  0  0  0  0  0  0  0  0
    4.3237   -2.9264   -3.1314 C   0  0  1  0  0  0  0  0  0  0  0  0
    2.9367   -2.3446   -3.2280 C   0  0  0  0  0  0  0  0  0  0  0  0
    2.8794   -1.2270   -2.5029 C   0  0  0  0  0  0  0  0  0  0  0  0
    4.1409   -0.9092   -1.7933 C   0  0  2  0  0  0  0  0  0  0  0  0
    5.0914   -1.6974   -2.6741 C   0  0  1  0  0  0  0  0  0  0  0  0
    6.2300   -2.2232   -1.7618 C   0  0  2  0  0  0  0  0  0  0  0  0
    6.0357   -3.3903   -1.6338 C   0  0  1  0  0  0  0  0  0  0  0  0
    5.7173   -2.1124   -0.3549 C   0  0  1  0  0  0  0  0  0  0  0  0
    4.2834   -1.4690   -0.3468 C   0  0  2  0  0  0  0  0  0  0  0  0
    5.8582   -3.3088   -0.3566 C   0  0  1  0  0  0  0  0  0  0  0  0
    2.6855   -4.6942    1.4348 C   0  0  1  0  0  0  0  0  0  0  0  0
    2.3987   -5.7700    0.5856 O   0  0  0  0  0  0  0  0  0  0  0  0
    3.1249   -5.2686    2.7074 N   0  0  0  0  0  0  0  0  0  0  0  0
    2.0845   -5.0200    3.6460 O   0  0  0  0  0  0  0  0  0  0  0  0
    4.1259   -2.4544    2.4774 H   0  0  0  0  0  0  0  0  0  0  0  0
    2.2837   -2.2605    0.2960 H   0  0  0  0  0  0  0  0  0  0  0  0
    4.9592   -4.9796   -2.5198 H   0  0  0  0  0  0  0  0  0  0  0  0
    4.6630   -3.2179   -4.1290 H   0  0  0  0  0  0  0  0  0  0  0  0
    2.1391   -2.7557   -3.8261 H   0  0  0  0  0  0  0  0  0  0  0  0
    2.0603   -0.5579   -2.3676 H   0  0  0  0  0  0  0  0  0  0  0  0
    4.3759    0.1393   -1.8275 H   0  0  0  0  0  0  0  0  0  0  0  0
    5.3663   -1.0989   -3.5116 H   0  0  0  0  0  0  0  0  0  0  0  0
    7.2671   -1.9488   -1.9967 H   0  0  0  0  0  0  0  0  0  0  0  0
    7.0047   -3.8087   -2.0260 H   0  0  0  0  0  0  0  0  0  0  0  0
    6.4697   -1.7295    0.3600 H   0  0  0  0  0  0  0  0  0  0  0  0
    4.2212   -0.6736    0.3816 H   0  0  0  0  0  0  0  0  0  0  0  0
    6.5845   -3.6589    0.4122 H   0  0  0  0  0  0  0  0  0  0  0  0
    1.7694   -4.1260    1.5920 H   0  0  0  0  0  0  0  0  0  0  0  0
    2.8880   -5.6213   -0.2115 H   0  0  0  0  0  0  0  0  0  0  0  0
    2.1372   -4.1176    3.9371 H   0  0  0  0  0  0  0  0  0  0  0  0
  1  2  2  0
  2 22  1  0
  2  3  2  0
  2  4  1  0
  5  4  1  1
  4 24  1  0
  5  8  1  0
  5  6  1  0
  5 20  1  0
  6 18  1  0
  6  7  1  0
  6 25  1  1
  8  7  1  6
  8 19  1  0
  8  9  1  0
  9 16  1  0
  9 10  1  0
  9 26  1  6
 10 14  1  0
 10 11  1  0
 10 27  1  6
 11 12  2  0
 11 28  1  0
 12 13  1  0
 12 29  1  0
 13 18  1  0
 13 14  1  0
 13 30  1  1
 14 15  1  0
 14 31  1  6
 15 19  1  0
 15 16  1  0
 15 32  1  1
 16 17  1  0
 16 33  1  1
 17 18  1  0
 17 19  1  0
 17 34  1  1
 18 35  1  1
 19 36  1  1
 20 21  1  0
 20 22  1  0
 20 37  1  1
 21 38  1  0
 22 23  1  0
 23 39  1  0
M  END
>  <i_m_ct_stereo_status>  (275) 
1

>  <s_m_source_file>  (275) 
/var/tmp/pbs.5076255.sched01/tmp7yh4k8o6/114t33l0ocj.sdf

>  <i_m_source_file_index>  (275) 
15

>  <i_lp_mmshare_version>  (275) 
48012

>  <i_f3d_flags>  (275) 
2

>  <s_epik_input>  (275) 
W09IXVtDQEhdMU4oW09IXSlTKD1PKSg9TylbTkhdW0NAQF0xMltDQF0zNFtDQEBIXTVbQ0BASF02W0NASF03W0NAQEhdKFtDSF09W0NIXTYpW0NIXShbQ0BASF0yTzMpW0NASF04W0NASF01W0NAQEhdN1tDQEhdNDg=

>  <s_epik_cmdline>  (275) 
J2VwaWtfcHl0aG9uJywgJy1waHQnLCAnMi4wJywgJy1waCcsICc3LjAnLCAnLXRuJywgJzgnLCAnLW1hJywgJzIwMCcsICctaW1hZScsICc8aW5maWxlLm1hZT4nLCAnLW9tYWUnLCAnPG91dGZpbGUubWFlPic=

>  <r_epik_Ionization_Penalty>  (275) 
0.0144511

>  <r_epik_Ionization_Penalty_Charging>  (275) 
0

>  <r_epik_Ionization_Penalty_Neutral>  (275) 
0.0144511

>  <r_epik_State_Penalty>  (275) 
0.00514575

>  <r_epik_Charging_Adjusted_Penalty>  (275) 
0.00514575

>  <i_epik_Tot_Q>  (275) 
0

>  <i_epik_Tot_abs_Q>  (275) 
0

>  <s_epik_Chemistry_Notes>  (275) 
This compound contains an acetal/aminal-like group ( X-CH(R)-Y where X, Y are N, S, or O) that may be acid/base labile, releasing an aldehyde. This compound has a N-S or N-O group and may undergo hydrolysis at high or low pH.

>  <s_lp_Force_Field>  (275) 
OPLS3e

>  <r_lp_Energy>  (275) 
510.272

>  <b_lp_Chiralities_Consistent>  (275) 
0

>  <s_lp_Variant>  (275) 
95:0-1

>  <s_i_glide_gridfile>  (275) 
pfpi4k_grid

>  <i_i_glide_lignum>  (275) 
15

>  <i_i_glide_rotatable_bonds>  (275) 
2

>  <r_i_docking_score>  (275) 
-2.64655

>  <r_i_glide_ligand_efficiency>  (275) 
-0.115067

>  <r_i_glide_ligand_efficiency_sa>  (275) 
-0.327236

>  <r_i_glide_ligand_efficiency_ln>  (275) 
-0.63996

>  <r_i_glide_gscore>  (275) 
-2.64655

>  <r_i_glide_lipo>  (275) 
-0.450292

>  <r_i_glide_hbond>  (275) 
0

>  <r_i_glide_metal>  (275) 
-0

>  <r_i_glide_rewards>  (275) 
-1.12303

>  <r_i_glide_evdw>  (275) 
-11.6597

>  <r_i_glide_ecoul>  (275) 
-3.16747

>  <r_i_glide_erotb>  (275) 
0

>  <r_i_glide_esite>  (275) 
-0.0151231

>  <r_i_glide_emodel>  (275) 
-17.9165

>  <r_i_glide_energy>  (275) 
-14.8272

>  <r_i_glide_einternal>  (275) 
0.0130291

>  <r_i_glide_intrahb_reward>  (275) 
-0

>  <i_i_glide_confnum>  (275) 
4

>  <i_i_glide_posenum>  (275) 
26

>  <r_i_glide_eff_state_penalty>  (275) 
0

>  <ligand_id>  (275) 
95

>  <original_smiles>  (275) 
O=S1(=O)NC2(C3OC24C2C5C=CC6C5C5C2C(C63)C54)C(O)N1O

>  <smiles>  (275) 
[H]ON1C([H])(O[H])C2(N([H])S1(=O)=O)C1([H])OC23C2([H])C4([H])C([H])=C([H])C5([H])C1([H])C1([H])C2([H])C([H])(C54[H])C13[H]

$$$$
96:0:0
     RDKit          3D

 52 55  0  0  1  0  0  0  0  0999 V2000
   -1.3759   -7.7856    3.9632 C   0  0  0  0  0  0  0  0  0  0  0  0
   -0.0308   -8.4570    3.7279 C   0  0  0  0  0  0  0  0  0  0  0  0
    0.4445   -9.3326    4.6462 C   0  0  0  0  0  0  0  0  0  0  0  0
    1.6679  -10.2330    4.6218 C   0  0  0  0  0  0  0  0  0  0  0  0
    2.9454   -9.5251    4.1919 C   0  0  0  0  0  0  0  0  0  0  0  0
    3.8072   -9.1858    5.0053 O   0  0  0  0  0  0  0  0  0  0  0  0
    3.0855   -9.2982    2.6952 C   0  0  2  0  0  0  0  0  0  0  0  0
    4.5032   -8.8920    2.1879 C   0  0  1  0  0  0  0  0  0  0  0  0
    4.6168   -9.4385    0.8798 O   0  0  0  0  0  0  0  0  0  0  0  0
    4.8125   -7.3426    2.1580 C   0  0  1  0  0  0  0  0  0  0  0  0
    6.0244   -7.1587    1.4597 O   0  0  0  0  0  0  0  0  0  0  0  0
    3.6417   -6.3783    1.6637 C   0  0  2  0  0  0  0  0  0  0  0  0
    3.9555   -4.8318    1.6667 C   0  0  0  0  0  0  0  0  0  0  0  0
    5.1481   -4.4416    0.7594 C   0  0  0  0  0  0  0  0  0  0  0  0
    2.7556   -4.0106    1.1201 C   0  0  0  0  0  0  0  0  0  0  0  0
    4.2489   -4.3881    3.1067 C   0  0  0  0  0  0  0  0  0  0  0  0
    3.1012   -4.7432    4.0583 C   0  0  0  0  0  0  0  0  0  0  0  0
    2.6493   -6.2154    3.9584 C   0  0  1  0  0  0  0  0  0  0  0  0
    1.5456   -6.2827    4.8281 O   0  0  0  0  0  0  0  0  0  0  0  0
    2.3728   -6.7513    2.4974 C   0  0  1  0  0  0  0  0  0  0  0  0
    0.8830   -6.6051    2.0303 C   0  0  1  0  0  0  0  0  0  0  0  0
    0.6536   -6.2656    0.6771 O   0  0  0  0  0  0  0  0  0  0  0  0
    0.6105   -8.1045    2.3843 C   0  0  1  0  0  0  0  0  0  0  0  0
    2.1166   -8.2535    2.2032 C   0  0  2  0  0  0  0  0  0  0  0  0
   -2.0427   -7.9604    3.1176 H   0  0  0  0  0  0  0  0  0  0  0  0
   -1.2690   -6.7086    4.1110 H   0  0  0  0  0  0  0  0  0  0  0  0
   -1.8559   -8.1941    4.8544 H   0  0  0  0  0  0  0  0  0  0  0  0
   -0.1777   -9.5237    5.5074 H   0  0  0  0  0  0  0  0  0  0  0  0
    1.8187  -10.6145    5.6334 H   0  0  0  0  0  0  0  0  0  0  0  0
    1.4721  -11.0987    3.9861 H   0  0  0  0  0  0  0  0  0  0  0  0
    2.8344  -10.2609    2.2435 H   0  0  0  0  0  0  0  0  0  0  0  0
    5.2686   -9.3810    2.7924 H   0  0  0  0  0  0  0  0  0  0  0  0
    4.4967  -10.3911    0.8799 H   0  0  0  0  0  0  0  0  0  0  0  0
    5.0752   -7.0789    3.1785 H   0  0  0  0  0  0  0  0  0  0  0  0
    6.3337   -6.2828    1.6320 H   0  0  0  0  0  0  0  0  0  0  0  0
    3.4670   -6.6303    0.6160 H   0  0  0  0  0  0  0  0  0  0  0  0
    5.1597   -3.3682    0.5607 H   0  0  0  0  0  0  0  0  0  0  0  0
    5.1007   -4.9482   -0.2076 H   0  0  0  0  0  0  0  0  0  0  0  0
    6.1126   -4.6598    1.2186 H   0  0  0  0  0  0  0  0  0  0  0  0
    2.9732   -2.9387    1.1174 H   0  0  0  0  0  0  0  0  0  0  0  0
    1.8549   -4.1277    1.7208 H   0  0  0  0  0  0  0  0  0  0  0  0
    2.5051   -4.2952    0.0957 H   0  0  0  0  0  0  0  0  0  0  0  0
    5.1600   -4.8677    3.4611 H   0  0  0  0  0  0  0  0  0  0  0  0
    4.4471   -3.3166    3.1465 H   0  0  0  0  0  0  0  0  0  0  0  0
    3.4230   -4.5326    5.0786 H   0  0  0  0  0  0  0  0  0  0  0  0
    2.2538   -4.0801    3.8754 H   0  0  0  0  0  0  0  0  0  0  0  0
    3.4219   -6.8047    4.4363 H   0  0  0  0  0  0  0  0  0  0  0  0
    1.8594   -6.1700    5.7122 H   0  0  0  0  0  0  0  0  0  0  0  0
    0.3238   -5.9114    2.6505 H   0  0  0  0  0  0  0  0  0  0  0  0
    1.1702   -6.8694    0.1669 H   0  0  0  0  0  0  0  0  0  0  0  0
    0.0447   -8.6110    1.6054 H   0  0  0  0  0  0  0  0  0  0  0  0
    2.1704   -8.3740    1.1179 H   0  0  0  0  0  0  0  0  0  0  0  0
  1  2  1  0
  1 25  1  0
  1 26  1  0
  1 27  1  0
  2 23  1  0
  2  3  2  0
  3  4  1  0
  3 28  1  0
  4  5  1  0
  4 29  1  0
  4 30  1  0
  5  6  2  0
  5  7  1  0
  7 24  1  0
  7  8  1  0
  7 31  1  6
  8  9  1  0
  8 10  1  0
  8 32  1  1
  9 33  1  0
 10 11  1  0
 10 12  1  0
 10 34  1  1
 11 35  1  0
 12 20  1  0
 12 13  1  0
 12 36  1  6
 13 14  1  0
 13 15  1  0
 13 16  1  0
 14 37  1  0
 14 38  1  0
 14 39  1  0
 15 40  1  0
 15 41  1  0
 15 42  1  0
 16 17  1  0
 16 43  1  0
 16 44  1  0
 17 18  1  0
 17 45  1  0
 17 46  1  0
 18 19  1  0
 20 18  1  1
 18 47  1  1
 19 48  1  0
 20 24  1  0
 20 21  1  0
 21 22  1  0
 21 23  1  0
 21 49  1  1
 22 50  1  0
 23 24  1  0
 23 51  1  6
 24 52  1  6
M  END
>  <i_m_ct_stereo_status>  (276) 
1

>  <s_m_source_file>  (276) 
/var/tmp/pbs.5076255.sched01/tmp7yh4k8o6/114t33l0ocj.sdf

>  <i_m_source_file_index>  (276) 
16

>  <i_lp_mmshare_version>  (276) 
48012

>  <i_f3d_flags>  (276) 
0

>  <s_epik_input>  (276) 
Tz1DMVtDSDJdW0NIXT1DKFtDSDNdKVtDQEBIXShbQ0BASF0yW09IXSlbQ0BASF0zW0NASF0xW0NAQEhdKFtPSF0pW0NAQEhdKFtPSF0pW0NAQEhdKFtDQEBdMjM0KUMoW0NIM10pKFtDSDNdKVtDSDJdW0NIMl1bQ0BIXTRbT0hd

>  <s_epik_cmdline>  (276) 
J2VwaWtfcHl0aG9uJywgJy1waHQnLCAnMi4wJywgJy1waCcsICc3LjAnLCAnLXRuJywgJzgnLCAnLW1hJywgJzIwMCcsICctaW1hZScsICc8aW5maWxlLm1hZT4nLCAnLW9tYWUnLCAnPG91dGZpbGUubWFlPic=

>  <r_lp_tautomer_probability>  (276) 
1

>  <r_epik_Ionization_Penalty>  (276) 
1.13797e-06

>  <r_epik_Ionization_Penalty_Charging>  (276) 
0

>  <r_epik_Ionization_Penalty_Neutral>  (276) 
1.13797e-06

>  <r_epik_State_Penalty>  (276) 
-0

>  <r_epik_Charging_Adjusted_Penalty>  (276) 
0

>  <i_epik_Tot_Q>  (276) 
0

>  <i_epik_Tot_abs_Q>  (276) 
0

>  <s_lp_Force_Field>  (276) 
OPLS3e

>  <r_lp_Energy>  (276) 
62.9301

>  <b_lp_Chiralities_Consistent>  (276) 
1

>  <s_lp_Variant>  (276) 
96:0-1

>  <s_i_glide_gridfile>  (276) 
pfpi4k_grid

>  <i_i_glide_lignum>  (276) 
16

>  <i_i_glide_rotatable_bonds>  (276) 
4

>  <r_i_docking_score>  (276) 
-3.85863

>  <r_i_glide_ligand_efficiency>  (276) 
-0.160776

>  <r_i_glide_ligand_efficiency_sa>  (276) 
-0.463759

>  <r_i_glide_ligand_efficiency_ln>  (276) 
-0.923547

>  <r_i_glide_gscore>  (276) 
-3.85863

>  <r_i_glide_lipo>  (276) 
-0.128043

>  <r_i_glide_hbond>  (276) 
-0.16

>  <r_i_glide_metal>  (276) 
-0

>  <r_i_glide_rewards>  (276) 
-1.1153

>  <r_i_glide_evdw>  (276) 
-23.7574

>  <r_i_glide_ecoul>  (276) 
-8.39672

>  <r_i_glide_erotb>  (276) 
0

>  <r_i_glide_esite>  (276) 
-0.00790758

>  <r_i_glide_emodel>  (276) 
-40.6691

>  <r_i_glide_energy>  (276) 
-32.1541

>  <r_i_glide_einternal>  (276) 
1.06762

>  <r_i_glide_intrahb_reward>  (276) 
-0

>  <i_i_glide_confnum>  (276) 
2

>  <i_i_glide_posenum>  (276) 
18

>  <r_i_glide_eff_state_penalty>  (276) 
0

>  <ligand_id>  (276) 
96

>  <original_smiles>  (276) 
CC1=CCC(=O)C2C(O)C(O)C3C(C)(C)CCC(O)C34C(O)C1C24

>  <smiles>  (276) 
[H]OC1([H])C([H])(O[H])C2([H])C(C([H])([H])[H])(C([H])([H])[H])C([H])([H])C([H])([H])C([H])(O[H])C23C([H])(O[H])C2([H])C(C([H])([H])[H])=C([H])C([H])([H])C(=O)C1([H])C23[H]

$$$$
96:0:1
     RDKit          3D

 52 55  0  0  1  0  0  0  0  0999 V2000
   -1.3125   -8.0501    4.0231 C   0  0  0  0  0  0  0  0  0  0  0  0
    0.0383   -8.6925    3.7485 C   0  0  0  0  0  0  0  0  0  0  0  0
    0.5089   -9.6394    4.5998 C   0  0  0  0  0  0  0  0  0  0  0  0
    1.7298  -10.5406    4.5157 C   0  0  0  0  0  0  0  0  0  0  0  0
    3.0097   -9.8044    4.1561 C   0  0  0  0  0  0  0  0  0  0  0  0
    3.8632   -9.5238    5.0041 O   0  0  0  0  0  0  0  0  0  0  0  0
    3.1656   -9.4528    2.6838 C   0  0  2  0  0  0  0  0  0  0  0  0
    4.5914   -9.0052    2.2355 C   0  0  1  0  0  0  0  0  0  0  0  0
    4.7387   -9.4500    0.8937 O   0  0  0  0  0  0  0  0  0  0  0  0
    4.8971   -7.4599    2.3291 C   0  0  1  0  0  0  0  0  0  0  0  0
    6.1149   -7.2240    1.6575 O   0  0  0  0  0  0  0  0  0  0  0  0
    3.7297   -6.4581    1.9010 C   0  0  2  0  0  0  0  0  0  0  0  0
    4.0333   -4.9145    2.0323 C   0  0  0  0  0  0  0  0  0  0  0  0
    5.2387   -4.4527    1.1787 C   0  0  0  0  0  0  0  0  0  0  0  0
    2.8396   -4.0512    1.5432 C   0  0  0  0  0  0  0  0  0  0  0  0
    4.3112   -4.5897    3.5091 C   0  0  0  0  0  0  0  0  0  0  0  0
    3.1532   -5.0247    4.4146 C   0  0  0  0  0  0  0  0  0  0  0  0
    2.7150   -6.4865    4.1935 C   0  0  1  0  0  0  0  0  0  0  0  0
    1.6106   -6.6465    5.0504 O   0  0  0  0  0  0  0  0  0  0  0  0
    2.4524   -6.8968    2.6906 C   0  0  1  0  0  0  0  0  0  0  0  0
    0.9679   -6.7074    2.2151 C   0  0  1  0  0  0  0  0  0  0  0  0
    0.7490   -6.2571    0.8943 O   0  0  0  0  0  0  0  0  0  0  0  0
    0.6928   -8.2302    2.4477 C   0  0  1  0  0  0  0  0  0  0  0  0
    2.1995   -8.3684    2.2677 C   0  0  2  0  0  0  0  0  0  0  0  0
   -1.9673   -8.1572    3.1568 H   0  0  0  0  0  0  0  0  0  0  0  0
   -1.2159   -6.9890    4.2588 H   0  0  0  0  0  0  0  0  0  0  0  0
   -1.8060   -8.5337    4.8691 H   0  0  0  0  0  0  0  0  0  0  0  0
   -0.1258   -9.9016    5.4325 H   0  0  0  0  0  0  0  0  0  0  0  0
    1.8694  -11.0022    5.4946 H   0  0  0  0  0  0  0  0  0  0  0  0
    1.5394  -11.3522    3.8114 H   0  0  0  0  0  0  0  0  0  0  0  0
    2.9242  -10.3781    2.1517 H   0  0  0  0  0  0  0  0  0  0  0  0
    5.3437   -9.5403    2.8177 H   0  0  0  0  0  0  0  0  0  0  0  0
    4.6114  -10.3983    0.8452 H   0  0  0  0  0  0  0  0  0  0  0  0
    5.1514   -7.2690    3.3702 H   0  0  0  0  0  0  0  0  0  0  0  0
    6.7866   -7.7629    2.0528 H   0  0  0  0  0  0  0  0  0  0  0  0
    3.5710   -6.6230    0.8341 H   0  0  0  0  0  0  0  0  0  0  0  0
    5.2586   -3.3677    1.0715 H   0  0  0  0  0  0  0  0  0  0  0  0
    5.2051   -4.8771    0.1746 H   0  0  0  0  0  0  0  0  0  0  0  0
    6.1925   -4.7247    1.6310 H   0  0  0  0  0  0  0  0  0  0  0  0
    3.0580   -2.9862    1.6323 H   0  0  0  0  0  0  0  0  0  0  0  0
    1.9331   -4.2189    2.1194 H   0  0  0  0  0  0  0  0  0  0  0  0
    2.6064   -4.2513    0.4979 H   0  0  0  0  0  0  0  0  0  0  0  0
    5.2198   -5.0957    3.8322 H   0  0  0  0  0  0  0  0  0  0  0  0
    4.5071   -3.5253    3.6409 H   0  0  0  0  0  0  0  0  0  0  0  0
    3.4601   -4.9069    5.4522 H   0  0  0  0  0  0  0  0  0  0  0  0
    2.3035   -4.3544    4.2796 H   0  0  0  0  0  0  0  0  0  0  0  0
    3.4917   -7.1064    4.6216 H   0  0  0  0  0  0  0  0  0  0  0  0
    1.4015   -7.5704    5.0819 H   0  0  0  0  0  0  0  0  0  0  0  0
    0.3993   -6.0685    2.8888 H   0  0  0  0  0  0  0  0  0  0  0  0
    1.2864   -6.8058    0.3415 H   0  0  0  0  0  0  0  0  0  0  0  0
    0.1276   -8.6533    1.6207 H   0  0  0  0  0  0  0  0  0  0  0  0
    2.2645   -8.3997    1.1775 H   0  0  0  0  0  0  0  0  0  0  0  0
  1  2  1  0
  1 25  1  0
  1 26  1  0
  1 27  1  0
  2 23  1  0
  2  3  2  0
  3  4  1  0
  3 28  1  0
  4  5  1  0
  4 29  1  0
  4 30  1  0
  5  6  2  0
  5  7  1  0
  7 24  1  0
  7  8  1  0
  7 31  1  6
  8  9  1  0
  8 10  1  0
  8 32  1  1
  9 33  1  0
 10 11  1  0
 10 12  1  0
 10 34  1  1
 11 35  1  0
 12 20  1  0
 12 13  1  0
 12 36  1  6
 13 14  1  0
 13 15  1  0
 13 16  1  0
 14 37  1  0
 14 38  1  0
 14 39  1  0
 15 40  1  0
 15 41  1  0
 15 42  1  0
 16 17  1  0
 16 43  1  0
 16 44  1  0
 17 18  1  0
 17 45  1  0
 17 46  1  0
 18 19  1  0
 20 18  1  1
 18 47  1  1
 19 48  1  0
 20 24  1  0
 20 21  1  0
 21 22  1  0
 21 23  1  0
 21 49  1  1
 22 50  1  0
 23 24  1  0
 23 51  1  6
 24 52  1  6
M  END
>  <i_m_ct_stereo_status>  (277) 
1

>  <s_m_source_file>  (277) 
/var/tmp/pbs.5076255.sched01/tmp7yh4k8o6/114t33l0ocj.sdf

>  <i_m_source_file_index>  (277) 
16

>  <i_lp_mmshare_version>  (277) 
48012

>  <i_f3d_flags>  (277) 
0

>  <s_epik_input>  (277) 
Tz1DMVtDSDJdW0NIXT1DKFtDSDNdKVtDQEBIXShbQ0BASF0yW09IXSlbQ0BASF0zW0NASF0xW0NAQEhdKFtPSF0pW0NAQEhdKFtPSF0pW0NAQEhdKFtDQEBdMjM0KUMoW0NIM10pKFtDSDNdKVtDSDJdW0NIMl1bQ0BIXTRbT0hd

>  <s_epik_cmdline>  (277) 
J2VwaWtfcHl0aG9uJywgJy1waHQnLCAnMi4wJywgJy1waCcsICc3LjAnLCAnLXRuJywgJzgnLCAnLW1hJywgJzIwMCcsICctaW1hZScsICc8aW5maWxlLm1hZT4nLCAnLW9tYWUnLCAnPG91dGZpbGUubWFlPic=

>  <r_lp_tautomer_probability>  (277) 
1

>  <r_epik_Ionization_Penalty>  (277) 
1.13797e-06

>  <r_epik_Ionization_Penalty_Charging>  (277) 
0

>  <r_epik_Ionization_Penalty_Neutral>  (277) 
1.13797e-06

>  <r_epik_State_Penalty>  (277) 
-0

>  <r_epik_Charging_Adjusted_Penalty>  (277) 
0

>  <i_epik_Tot_Q>  (277) 
0

>  <i_epik_Tot_abs_Q>  (277) 
0

>  <s_lp_Force_Field>  (277) 
OPLS3e

>  <r_lp_Energy>  (277) 
62.9301

>  <b_lp_Chiralities_Consistent>  (277) 
1

>  <s_lp_Variant>  (277) 
96:0-1

>  <s_i_glide_gridfile>  (277) 
pfpi4k_grid

>  <i_i_glide_lignum>  (277) 
16

>  <i_i_glide_rotatable_bonds>  (277) 
4

>  <r_i_docking_score>  (277) 
-3.837

>  <r_i_glide_ligand_efficiency>  (277) 
-0.159875

>  <r_i_glide_ligand_efficiency_sa>  (277) 
-0.46116

>  <r_i_glide_ligand_efficiency_ln>  (277) 
-0.918371

>  <r_i_glide_gscore>  (277) 
-3.837

>  <r_i_glide_lipo>  (277) 
-0.0879609

>  <r_i_glide_hbond>  (277) 
-0.16

>  <r_i_glide_metal>  (277) 
-0

>  <r_i_glide_rewards>  (277) 
-1.1153

>  <r_i_glide_evdw>  (277) 
-23.4486

>  <r_i_glide_ecoul>  (277) 
-8.61235

>  <r_i_glide_erotb>  (277) 
0

>  <r_i_glide_esite>  (277) 
-0.0094593

>  <r_i_glide_emodel>  (277) 
-40.6282

>  <r_i_glide_energy>  (277) 
-32.061

>  <r_i_glide_einternal>  (277) 
1.02699

>  <r_i_glide_intrahb_reward>  (277) 
-0

>  <i_i_glide_confnum>  (277) 
1

>  <i_i_glide_posenum>  (277) 
9

>  <r_i_glide_eff_state_penalty>  (277) 
0

>  <ligand_id>  (277) 
96

>  <original_smiles>  (277) 
CC1=CCC(=O)C2C(O)C(O)C3C(C)(C)CCC(O)C34C(O)C1C24

>  <smiles>  (277) 
[H]OC1([H])C([H])(O[H])C2([H])C(C([H])([H])[H])(C([H])([H])[H])C([H])([H])C([H])([H])C([H])(O[H])C23C([H])(O[H])C2([H])C(C([H])([H])[H])=C([H])C([H])([H])C(=O)C1([H])C23[H]

$$$$
96:0:2
     RDKit          3D

 52 55  0  0  1  0  0  0  0  0999 V2000
   -0.2636   -7.4376    4.7389 C   0  0  0  0  0  0  0  0  0  0  0  0
    1.0720   -8.0558    4.3505 C   0  0  0  0  0  0  0  0  0  0  0  0
    1.7628   -8.7638    5.2773 C   0  0  0  0  0  0  0  0  0  0  0  0
    3.0439   -9.5761    5.1613 C   0  0  0  0  0  0  0  0  0  0  0  0
    4.1651   -8.8523    4.4308 C   0  0  0  0  0  0  0  0  0  0  0  0
    5.1245   -8.3628    5.0337 O   0  0  0  0  0  0  0  0  0  0  0  0
    4.0404   -8.8209    2.9139 C   0  0  2  0  0  0  0  0  0  0  0  0
    5.3138   -8.3946    2.1197 C   0  0  1  0  0  0  0  0  0  0  0  0
    5.2298   -9.0830    0.8814 O   0  0  0  0  0  0  0  0  0  0  0  0
    5.4834   -6.8520    1.8537 C   0  0  1  0  0  0  0  0  0  0  0  0
    6.5572   -6.6697    0.9579 O   0  0  0  0  0  0  0  0  0  0  0  0
    4.1714   -6.0481    1.4445 C   0  0  2  0  0  0  0  0  0  0  0  0
    4.3478   -4.4993    1.1987 C   0  0  0  0  0  0  0  0  0  0  0  0
    5.3407   -4.1668    0.0570 C   0  0  0  0  0  0  0  0  0  0  0  0
    3.0109   -3.8386    0.7717 C   0  0  0  0  0  0  0  0  0  0  0  0
    4.8385   -3.8471    2.5015 C   0  0  0  0  0  0  0  0  0  0  0  0
    3.8966   -4.1392    3.6744 C   0  0  0  0  0  0  0  0  0  0  0  0
    3.5596   -5.6365    3.8391 C   0  0  1  0  0  0  0  0  0  0  0  0
    2.6270   -5.6614    4.8926 O   0  0  0  0  0  0  0  0  0  0  0  0
    3.0911   -6.3810    2.5254 C   0  0  1  0  0  0  0  0  0  0  0  0
    1.5354   -6.3922    2.3078 C   0  0  1  0  0  0  0  0  0  0  0  0
    1.0501   -6.2516    0.9854 O   0  0  0  0  0  0  0  0  0  0  0  0
    1.4537   -7.8482    2.8806 C   0  0  1  0  0  0  0  0  0  0  0  0
    2.9151   -7.9211    2.4630 C   0  0  2  0  0  0  0  0  0  0  0  0
   -1.0440   -7.7671    4.0524 H   0  0  0  0  0  0  0  0  0  0  0  0
   -0.2216   -6.3468    4.7281 H   0  0  0  0  0  0  0  0  0  0  0  0
   -0.5623   -7.7446    5.7427 H   0  0  0  0  0  0  0  0  0  0  0  0
    1.3186   -8.8581    6.2577 H   0  0  0  0  0  0  0  0  0  0  0  0
    3.3914   -9.7999    6.1703 H   0  0  0  0  0  0  0  0  0  0  0  0
    2.8230  -10.5308    4.6848 H   0  0  0  0  0  0  0  0  0  0  0  0
    3.8022   -9.8545    2.6432 H   0  0  0  0  0  0  0  0  0  0  0  0
    6.2037   -8.7628    2.6327 H   0  0  0  0  0  0  0  0  0  0  0  0
    5.0533  -10.0053    1.0359 H   0  0  0  0  0  0  0  0  0  0  0  0
    5.8838   -6.4425    2.7775 H   0  0  0  0  0  0  0  0  0  0  0  0
    6.7934   -5.7588    0.9548 H   0  0  0  0  0  0  0  0  0  0  0  0
    3.8503   -6.4550    0.4846 H   0  0  0  0  0  0  0  0  0  0  0  0
    5.2267   -3.1338   -0.2745 H   0  0  0  0  0  0  0  0  0  0  0  0
    5.1776   -4.8046   -0.8143 H   0  0  0  0  0  0  0  0  0  0  0  0
    6.3814   -4.2576    0.3653 H   0  0  0  0  0  0  0  0  0  0  0  0
    3.1351   -2.7679    0.5963 H   0  0  0  0  0  0  0  0  0  0  0  0
    2.2328   -3.9305    1.5276 H   0  0  0  0  0  0  0  0  0  0  0  0
    2.6260   -4.2789   -0.1501 H   0  0  0  0  0  0  0  0  0  0  0  0
    5.8326   -4.2148    2.7475 H   0  0  0  0  0  0  0  0  0  0  0  0
    4.9490   -2.7707    2.3712 H   0  0  0  0  0  0  0  0  0  0  0  0
    4.3653   -3.7715    4.5876 H   0  0  0  0  0  0  0  0  0  0  0  0
    2.9778   -3.5612    3.5607 H   0  0  0  0  0  0  0  0  0  0  0  0
    4.4475   -6.1047    4.2438 H   0  0  0  0  0  0  0  0  0  0  0  0
    3.0565   -5.3456    5.6744 H   0  0  0  0  0  0  0  0  0  0  0  0
    1.0263   -5.6554    2.9272 H   0  0  0  0  0  0  0  0  0  0  0  0
    1.4639   -6.9365    0.4802 H   0  0  0  0  0  0  0  0  0  0  0  0
    0.8216   -8.4907    2.2626 H   0  0  0  0  0  0  0  0  0  0  0  0
    2.8066   -8.1840    1.4076 H   0  0  0  0  0  0  0  0  0  0  0  0
  1  2  1  0
  1 25  1  0
  1 26  1  0
  1 27  1  0
  2 23  1  0
  2  3  2  0
  3  4  1  0
  3 28  1  0
  4  5  1  0
  4 29  1  0
  4 30  1  0
  5  6  2  0
  5  7  1  0
  7 24  1  0
  7  8  1  0
  7 31  1  6
  8  9  1  0
  8 10  1  0
  8 32  1  1
  9 33  1  0
 10 11  1  0
 10 12  1  0
 10 34  1  1
 11 35  1  0
 12 20  1  0
 12 13  1  0
 12 36  1  6
 13 14  1  0
 13 15  1  0
 13 16  1  0
 14 37  1  0
 14 38  1  0
 14 39  1  0
 15 40  1  0
 15 41  1  0
 15 42  1  0
 16 17  1  0
 16 43  1  0
 16 44  1  0
 17 18  1  0
 17 45  1  0
 17 46  1  0
 18 19  1  0
 20 18  1  1
 18 47  1  1
 19 48  1  0
 20 24  1  0
 20 21  1  0
 21 22  1  0
 21 23  1  0
 21 49  1  1
 22 50  1  0
 23 24  1  0
 23 51  1  6
 24 52  1  6
M  END
>  <i_m_ct_stereo_status>  (278) 
1

>  <s_m_source_file>  (278) 
/var/tmp/pbs.5076255.sched01/tmp7yh4k8o6/114t33l0ocj.sdf

>  <i_m_source_file_index>  (278) 
16

>  <i_lp_mmshare_version>  (278) 
48012

>  <i_f3d_flags>  (278) 
0

>  <s_epik_input>  (278) 
Tz1DMVtDSDJdW0NIXT1DKFtDSDNdKVtDQEBIXShbQ0BASF0yW09IXSlbQ0BASF0zW0NASF0xW0NAQEhdKFtPSF0pW0NAQEhdKFtPSF0pW0NAQEhdKFtDQEBdMjM0KUMoW0NIM10pKFtDSDNdKVtDSDJdW0NIMl1bQ0BIXTRbT0hd

>  <s_epik_cmdline>  (278) 
J2VwaWtfcHl0aG9uJywgJy1waHQnLCAnMi4wJywgJy1waCcsICc3LjAnLCAnLXRuJywgJzgnLCAnLW1hJywgJzIwMCcsICctaW1hZScsICc8aW5maWxlLm1hZT4nLCAnLW9tYWUnLCAnPG91dGZpbGUubWFlPic=

>  <r_lp_tautomer_probability>  (278) 
1

>  <r_epik_Ionization_Penalty>  (278) 
1.13797e-06

>  <r_epik_Ionization_Penalty_Charging>  (278) 
0

>  <r_epik_Ionization_Penalty_Neutral>  (278) 
1.13797e-06

>  <r_epik_State_Penalty>  (278) 
-0

>  <r_epik_Charging_Adjusted_Penalty>  (278) 
0

>  <i_epik_Tot_Q>  (278) 
0

>  <i_epik_Tot_abs_Q>  (278) 
0

>  <s_lp_Force_Field>  (278) 
OPLS3e

>  <r_lp_Energy>  (278) 
62.9301

>  <b_lp_Chiralities_Consistent>  (278) 
1

>  <s_lp_Variant>  (278) 
96:0-1

>  <s_i_glide_gridfile>  (278) 
pfpi4k_grid

>  <i_i_glide_lignum>  (278) 
16

>  <i_i_glide_rotatable_bonds>  (278) 
4

>  <r_i_docking_score>  (278) 
-3.32148

>  <r_i_glide_ligand_efficiency>  (278) 
-0.138395

>  <r_i_glide_ligand_efficiency_sa>  (278) 
-0.3992

>  <r_i_glide_ligand_efficiency_ln>  (278) 
-0.794982

>  <r_i_glide_gscore>  (278) 
-3.32148

>  <r_i_glide_lipo>  (278) 
-0.237446

>  <r_i_glide_hbond>  (278) 
-0.16

>  <r_i_glide_metal>  (278) 
-0

>  <r_i_glide_rewards>  (278) 
-1.1153

>  <r_i_glide_evdw>  (278) 
-20.0202

>  <r_i_glide_ecoul>  (278) 
-5.38443

>  <r_i_glide_erotb>  (278) 
0

>  <r_i_glide_esite>  (278) 
-5.49012e-05

>  <r_i_glide_emodel>  (278) 
-32.5682

>  <r_i_glide_energy>  (278) 
-25.4046

>  <r_i_glide_einternal>  (278) 
1.24399

>  <r_i_glide_intrahb_reward>  (278) 
-0

>  <i_i_glide_confnum>  (278) 
1

>  <i_i_glide_posenum>  (278) 
35

>  <r_i_glide_eff_state_penalty>  (278) 
0

>  <ligand_id>  (278) 
96

>  <original_smiles>  (278) 
CC1=CCC(=O)C2C(O)C(O)C3C(C)(C)CCC(O)C34C(O)C1C24

>  <smiles>  (278) 
[H]OC1([H])C([H])(O[H])C2([H])C(C([H])([H])[H])(C([H])([H])[H])C([H])([H])C([H])([H])C([H])(O[H])C23C([H])(O[H])C2([H])C(C([H])([H])[H])=C([H])C([H])([H])C(=O)C1([H])C23[H]

$$$$
98:0:0
     RDKit          3D

 43 47  0  0  1  0  0  0  0  0999 V2000
    3.3626   -3.7390   -0.5839 C   0  0  0  0  0  0  0  0  0  0  0  0
    4.2429   -4.2200    0.5791 C   0  0  0  0  0  0  0  0  0  0  0  0
    5.5276   -3.3653    0.6167 C   0  0  0  0  0  0  0  0  0  0  0  0
    3.4445   -3.9793    1.8729 C   0  0  0  0  0  0  0  0  0  0  0  0
    3.0306   -5.0191    2.6093 C   0  0  0  0  0  0  0  0  0  0  0  0
    3.2408   -6.2789    2.3215 C   0  0  0  0  0  0  0  0  0  0  0  0
    3.9536   -6.7355    1.2696 C   0  0  0  0  0  0  0  0  0  0  0  0
    4.2276   -8.0026    0.9674 O   0  0  0  0  0  0  0  0  0  0  0  0
    4.6384   -5.7382    0.3419 C   0  0  0  0  0  0  0  0  0  0  0  0
    2.5087   -6.7198    3.5543 C   0  0  2  0  0  0  0  0  0  0  0  0
    1.1587   -7.4159    3.3934 C   0  0  0  0  0  0  0  0  0  0  0  0
    1.0192   -8.6353    2.6988 C   0  0  0  0  0  0  0  0  0  0  0  0
   -0.2507   -9.2518    2.6418 C   0  0  0  0  0  0  0  0  0  0  0  0
   -1.3687   -8.6636    3.2776 C   0  0  0  0  0  0  0  0  0  0  0  0
   -1.2208   -7.4572    3.9852 C   0  0  0  0  0  0  0  0  0  0  0  0
    0.0376   -6.8265    4.0244 C   0  0  0  0  0  0  0  0  0  0  0  0
    0.1691   -5.6188    4.6660 O   0  0  0  0  0  0  0  0  0  0  0  0
    1.0295   -4.7220    4.0491 C   0  0  1  0  0  0  0  0  0  0  0  0
    1.0342   -3.4659    4.8577 C   0  0  0  0  0  0  0  0  0  0  0  0
    1.2184   -2.1532    4.5304 C   0  0  0  0  0  0  0  0  0  0  0  0
    1.1122   -1.4148    5.7480 C   0  0  0  0  0  0  0  0  0  0  0  0
    0.8753   -2.3378    6.7227 C   0  0  0  0  0  0  0  0  0  0  0  0
    0.8168   -3.5898    6.1965 O   0  0  0  0  0  0  0  0  0  0  0  0
    2.3664   -5.2648    3.8141 N   0  0  0  0  0  0  0  0  0  0  0  0
    3.8539   -3.8380   -1.5486 H   0  0  0  0  0  0  0  0  0  0  0  0
    3.0513   -2.7023   -0.4597 H   0  0  0  0  0  0  0  0  0  0  0  0
    2.4564   -4.3389   -0.6262 H   0  0  0  0  0  0  0  0  0  0  0  0
    6.1250   -3.4558   -0.2944 H   0  0  0  0  0  0  0  0  0  0  0  0
    6.1685   -3.6587    1.4466 H   0  0  0  0  0  0  0  0  0  0  0  0
    5.3037   -2.3085    0.7606 H   0  0  0  0  0  0  0  0  0  0  0  0
    4.4374   -6.0297   -0.6918 H   0  0  0  0  0  0  0  0  0  0  0  0
    5.7233   -5.8663    0.4538 H   0  0  0  0  0  0  0  0  0  0  0  0
    3.0794   -7.1617    4.3764 H   0  0  0  0  0  0  0  0  0  0  0  0
    1.8711   -9.1097    2.2227 H   0  0  0  0  0  0  0  0  0  0  0  0
   -0.3692  -10.1857    2.1139 H   0  0  0  0  0  0  0  0  0  0  0  0
   -2.3304   -9.1551    3.2328 H   0  0  0  0  0  0  0  0  0  0  0  0
   -2.0674   -7.0040    4.4798 H   0  0  0  0  0  0  0  0  0  0  0  0
    0.6305   -4.4673    3.0714 H   0  0  0  0  0  0  0  0  0  0  0  0
    1.4126   -1.7849    3.5305 H   0  0  0  0  0  0  0  0  0  0  0  0
    1.2064   -0.3494    5.8973 H   0  0  0  0  0  0  0  0  0  0  0  0
    0.7325   -2.2908    7.7892 H   0  0  0  0  0  0  0  0  0  0  0  0
    3.2505   -2.9551    2.1560 H   0  0  0  0  0  0  0  0  0  0  0  0
    3.7688   -8.5558    1.5684 H   0  0  0  0  0  0  0  0  0  0  0  0
  1  2  1  0
  1 25  1  0
  1 26  1  0
  1 27  1  0
  2  9  1  0
  2  3  1  0
  2  4  1  0
  3 28  1  0
  3 29  1  0
  3 30  1  0
  4  5  2  0
  4 42  1  0
  5 24  1  0
  5  6  1  0
  6  7  2  0
  6 10  1  0
  7  8  1  0
  7  9  1  0
  8 43  1  0
  9 31  1  0
  9 32  1  0
 10 24  1  0
 10 11  1  0
 10 33  1  1
 11 16  2  0
 11 12  1  0
 12 13  2  0
 12 34  1  0
 13 14  1  0
 13 35  1  0
 14 15  2  0
 14 36  1  0
 15 16  1  0
 15 37  1  0
 16 17  1  0
 17 18  1  0
 18 19  1  0
 18 24  1  0
 18 38  1  6
 19 23  1  0
 19 20  2  0
 20 21  1  0
 20 39  1  0
 21 22  2  0
 21 40  1  0
 22 23  1  0
 22 41  1  0
M  END
>  <i_m_ct_stereo_status>  (279) 
1

>  <s_m_source_file>  (279) 
/var/tmp/pbs.5076255.sched01/tmp7yh4k8o6/114t33l0ocj.sdf

>  <i_m_source_file_index>  (279) 
18

>  <i_lp_mmshare_version>  (279) 
48012

>  <i_f3d_flags>  (279) 
0

>  <s_epik_input>  (279) 
W0NIM11DKFtDSDNdKShbQ0hdPTEpW0NIMl1DKD1PKVtDQEBIXShDMTIpW0NAQEhdM2M0YyhbY0hdW2NIXVtjSF1bY0hdNClPW0NASF0oTjIzKWM1W2NIXVtjSF1bY0hdbzU=

>  <s_epik_cmdline>  (279) 
J2VwaWtfcHl0aG9uJywgJy1waHQnLCAnMi4wJywgJy1waCcsICc3LjAnLCAnLXRuJywgJzgnLCAnLW1hJywgJzIwMCcsICctaW1hZScsICc8aW5maWxlLm1hZT4nLCAnLW9tYWUnLCAnPG91dGZpbGUubWFlPic=

>  <r_lp_tautomer_probability>  (279) 
1

>  <r_epik_Ionization_Penalty>  (279) 
0.250721

>  <r_epik_Ionization_Penalty_Charging>  (279) 
3.17247e-09

>  <r_epik_Ionization_Penalty_Neutral>  (279) 
0.250721

>  <r_epik_State_Penalty>  (279) 
0.242055

>  <r_epik_Charging_Adjusted_Penalty>  (279) 
0.242055

>  <i_epik_Tot_Q>  (279) 
0

>  <i_epik_Tot_abs_Q>  (279) 
0

>  <s_epik_Chemistry_Notes>  (279) 
This compound has an imine and may undergo hydrolysis. This compound contains an acetal/aminal-like group ( X-CH(R)-Y where X, Y are N, S, or O) that may be acid/base labile, releasing an aldehyde.

>  <s_lp_Force_Field>  (279) 
OPLS3e

>  <r_lp_Energy>  (279) 
52.2199

>  <b_lp_Chiralities_Consistent>  (279) 
1

>  <s_lp_Variant>  (279) 
98:0-1

>  <s_i_glide_gridfile>  (279) 
pfpi4k_grid

>  <i_i_glide_lignum>  (279) 
18

>  <i_i_glide_rotatable_bonds>  (279) 
2

>  <r_i_docking_score>  (279) 
-2.8063

>  <r_i_glide_ligand_efficiency>  (279) 
-0.116929

>  <r_i_glide_ligand_efficiency_sa>  (279) 
-0.337282

>  <r_i_glide_ligand_efficiency_ln>  (279) 
-0.671676

>  <r_i_glide_gscore>  (279) 
-2.8063

>  <r_i_glide_lipo>  (279) 
-0.272883

>  <r_i_glide_hbond>  (279) 
0

>  <r_i_glide_metal>  (279) 
-0

>  <r_i_glide_rewards>  (279) 
-1.21793

>  <r_i_glide_evdw>  (279) 
-24.2497

>  <r_i_glide_ecoul>  (279) 
-1.84429

>  <r_i_glide_erotb>  (279) 
0.180925

>  <r_i_glide_esite>  (279) 
-0.00727885

>  <r_i_glide_emodel>  (279) 
-30.5709

>  <r_i_glide_energy>  (279) 
-26.094

>  <r_i_glide_einternal>  (279) 
0.27873

>  <r_i_glide_intrahb_reward>  (279) 
-0

>  <i_i_glide_confnum>  (279) 
3

>  <i_i_glide_posenum>  (279) 
8

>  <r_i_glide_eff_state_penalty>  (279) 
0

>  <ligand_id>  (279) 
98

>  <original_smiles>  (279) 
CC1(C)C=C2C(C(=O)C1)C1c3ccccc3OC(c3ccco3)N21

>  <smiles>  (279) 
[H]OC1=C2C(=C([H])C(C([H])([H])[H])(C([H])([H])[H])C1([H])[H])N1C([H])(c3oc([H])c([H])c3[H])Oc3c([H])c([H])c([H])c([H])c3C21[H]

$$$$
98:0:1
     RDKit          3D

 43 47  0  0  1  0  0  0  0  0999 V2000
    3.4847   -3.8480   -0.5906 C   0  0  0  0  0  0  0  0  0  0  0  0
    4.3399   -4.3456    0.5826 C   0  0  0  0  0  0  0  0  0  0  0  0
    5.6448   -3.5194    0.6319 C   0  0  0  0  0  0  0  0  0  0  0  0
    3.5358   -4.0879    1.8672 C   0  0  0  0  0  0  0  0  0  0  0  0
    3.0898   -5.1198    2.5967 C   0  0  0  0  0  0  0  0  0  0  0  0
    3.2756   -6.3839    2.3142 C   0  0  0  0  0  0  0  0  0  0  0  0
    3.9851   -6.8585    1.2726 C   0  0  0  0  0  0  0  0  0  0  0  0
    4.2343   -8.1300    0.9693 O   0  0  0  0  0  0  0  0  0  0  0  0
    4.7025   -5.8736    0.3494 C   0  0  0  0  0  0  0  0  0  0  0  0
    2.5164   -6.8085    3.5384 C   0  0  2  0  0  0  0  0  0  0  0  0
    1.1543   -7.4706    3.3662 C   0  0  0  0  0  0  0  0  0  0  0  0
    0.9968   -8.6895    2.6691 C   0  0  0  0  0  0  0  0  0  0  0  0
   -0.2855   -9.2778    2.6017 C   0  0  0  0  0  0  0  0  0  0  0  0
   -1.3941   -8.6602    3.2219 C   0  0  0  0  0  0  0  0  0  0  0  0
   -1.2293   -7.4571    3.9323 C   0  0  0  0  0  0  0  0  0  0  0  0
    0.0416   -6.8528    3.9829 C   0  0  0  0  0  0  0  0  0  0  0  0
    0.1922   -5.6422    4.6199 O   0  0  0  0  0  0  0  0  0  0  0  0
    1.0816   -4.7695    4.0074 C   0  0  1  0  0  0  0  0  0  0  0  0
    1.1243   -3.5406    4.8466 C   0  0  0  0  0  0  0  0  0  0  0  0
    1.8916   -3.1474    5.9031 C   0  0  0  0  0  0  0  0  0  0  0  0
    1.4542   -1.8364    6.2541 C   0  0  0  0  0  0  0  0  0  0  0  0
    0.4448   -1.5349    5.3867 C   0  0  0  0  0  0  0  0  0  0  0  0
    0.2225   -2.5675    4.5280 O   0  0  0  0  0  0  0  0  0  0  0  0
    2.4027   -5.3522    3.7881 N   0  0  0  0  0  0  0  0  0  0  0  0
    3.9884   -3.9518   -1.5504 H   0  0  0  0  0  0  0  0  0  0  0  0
    3.1941   -2.8058   -0.4668 H   0  0  0  0  0  0  0  0  0  0  0  0
    2.5667   -4.4283   -0.6459 H   0  0  0  0  0  0  0  0  0  0  0  0
    6.2464   -3.6270   -0.2724 H   0  0  0  0  0  0  0  0  0  0  0  0
    6.2698   -3.8273    1.4706 H   0  0  0  0  0  0  0  0  0  0  0  0
    5.4437   -2.4575    0.7704 H   0  0  0  0  0  0  0  0  0  0  0  0
    4.5095   -6.1633   -0.6850 H   0  0  0  0  0  0  0  0  0  0  0  0
    5.7814   -6.0254    0.4727 H   0  0  0  0  0  0  0  0  0  0  0  0
    3.0706   -7.2599    4.3653 H   0  0  0  0  0  0  0  0  0  0  0  0
    1.8423   -9.1825    2.2056 H   0  0  0  0  0  0  0  0  0  0  0  0
   -0.4180  -10.2157    2.0855 H   0  0  0  0  0  0  0  0  0  0  0  0
   -2.3649   -9.1305    3.1696 H   0  0  0  0  0  0  0  0  0  0  0  0
   -2.0753   -6.9913    4.4134 H   0  0  0  0  0  0  0  0  0  0  0  0
    0.6921   -4.4910    3.0306 H   0  0  0  0  0  0  0  0  0  0  0  0
    2.6766   -3.7481    6.3414 H   0  0  0  0  0  0  0  0  0  0  0  0
    1.8324   -1.1890    7.0324 H   0  0  0  0  0  0  0  0  0  0  0  0
   -0.1830   -0.6727    5.2418 H   0  0  0  0  0  0  0  0  0  0  0  0
    3.3526   -3.0606    2.1498 H   0  0  0  0  0  0  0  0  0  0  0  0
    3.7664   -8.6760    1.5715 H   0  0  0  0  0  0  0  0  0  0  0  0
  1  2  1  0
  1 25  1  0
  1 26  1  0
  1 27  1  0
  2  9  1  0
  2  3  1  0
  2  4  1  0
  3 28  1  0
  3 29  1  0
  3 30  1  0
  4  5  2  0
  4 42  1  0
  5 24  1  0
  5  6  1  0
  6  7  2  0
  6 10  1  0
  7  8  1  0
  7  9  1  0
  8 43  1  0
  9 31  1  0
  9 32  1  0
 10 24  1  0
 10 11  1  0
 10 33  1  1
 11 16  2  0
 11 12  1  0
 12 13  2  0
 12 34  1  0
 13 14  1  0
 13 35  1  0
 14 15  2  0
 14 36  1  0
 15 16  1  0
 15 37  1  0
 16 17  1  0
 17 18  1  0
 18 19  1  0
 18 24  1  0
 18 38  1  6
 19 23  1  0
 19 20  2  0
 20 21  1  0
 20 39  1  0
 21 22  2  0
 21 40  1  0
 22 23  1  0
 22 41  1  0
M  END
>  <i_m_ct_stereo_status>  (280) 
1

>  <s_m_source_file>  (280) 
/var/tmp/pbs.5076255.sched01/tmp7yh4k8o6/114t33l0ocj.sdf

>  <i_m_source_file_index>  (280) 
18

>  <i_lp_mmshare_version>  (280) 
48012

>  <i_f3d_flags>  (280) 
0

>  <s_epik_input>  (280) 
W0NIM11DKFtDSDNdKShbQ0hdPTEpW0NIMl1DKD1PKVtDQEBIXShDMTIpW0NAQEhdM2M0YyhbY0hdW2NIXVtjSF1bY0hdNClPW0NASF0oTjIzKWM1W2NIXVtjSF1bY0hdbzU=

>  <s_epik_cmdline>  (280) 
J2VwaWtfcHl0aG9uJywgJy1waHQnLCAnMi4wJywgJy1waCcsICc3LjAnLCAnLXRuJywgJzgnLCAnLW1hJywgJzIwMCcsICctaW1hZScsICc8aW5maWxlLm1hZT4nLCAnLW9tYWUnLCAnPG91dGZpbGUubWFlPic=

>  <r_lp_tautomer_probability>  (280) 
1

>  <r_epik_Ionization_Penalty>  (280) 
0.250721

>  <r_epik_Ionization_Penalty_Charging>  (280) 
3.17247e-09

>  <r_epik_Ionization_Penalty_Neutral>  (280) 
0.250721

>  <r_epik_State_Penalty>  (280) 
0.242055

>  <r_epik_Charging_Adjusted_Penalty>  (280) 
0.242055

>  <i_epik_Tot_Q>  (280) 
0

>  <i_epik_Tot_abs_Q>  (280) 
0

>  <s_epik_Chemistry_Notes>  (280) 
This compound has an imine and may undergo hydrolysis. This compound contains an acetal/aminal-like group ( X-CH(R)-Y where X, Y are N, S, or O) that may be acid/base labile, releasing an aldehyde.

>  <s_lp_Force_Field>  (280) 
OPLS3e

>  <r_lp_Energy>  (280) 
52.2199

>  <b_lp_Chiralities_Consistent>  (280) 
1

>  <s_lp_Variant>  (280) 
98:0-1

>  <s_i_glide_gridfile>  (280) 
pfpi4k_grid

>  <i_i_glide_lignum>  (280) 
18

>  <i_i_glide_rotatable_bonds>  (280) 
2

>  <r_i_docking_score>  (280) 
-2.7238

>  <r_i_glide_ligand_efficiency>  (280) 
-0.113492

>  <r_i_glide_ligand_efficiency_sa>  (280) 
-0.327367

>  <r_i_glide_ligand_efficiency_ln>  (280) 
-0.651931

>  <r_i_glide_gscore>  (280) 
-2.7238

>  <r_i_glide_lipo>  (280) 
-0.304881

>  <r_i_glide_hbond>  (280) 
0

>  <r_i_glide_metal>  (280) 
-0

>  <r_i_glide_rewards>  (280) 
-1.21793

>  <r_i_glide_evdw>  (280) 
-24.5358

>  <r_i_glide_ecoul>  (280) 
-0.981004

>  <r_i_glide_erotb>  (280) 
0.180925

>  <r_i_glide_esite>  (280) 
-0.00797421

>  <r_i_glide_emodel>  (280) 
-29.7843

>  <r_i_glide_energy>  (280) 
-25.5168

>  <r_i_glide_einternal>  (280) 
0.487122

>  <r_i_glide_intrahb_reward>  (280) 
-0

>  <i_i_glide_confnum>  (280) 
2

>  <i_i_glide_posenum>  (280) 
2

>  <r_i_glide_eff_state_penalty>  (280) 
0

>  <ligand_id>  (280) 
98

>  <original_smiles>  (280) 
CC1(C)C=C2C(C(=O)C1)C1c3ccccc3OC(c3ccco3)N21

>  <smiles>  (280) 
[H]OC1=C2C(=C([H])C(C([H])([H])[H])(C([H])([H])[H])C1([H])[H])N1C([H])(c3oc([H])c([H])c3[H])Oc3c([H])c([H])c([H])c([H])c3C21[H]

$$$$
98:0:2
     RDKit          3D

 43 47  0  0  1  0  0  0  0  0999 V2000
    2.8710   -2.8695   -2.4012 C   0  0  0  0  0  0  0  0  0  0  0  0
    4.0709   -2.5181   -1.5094 C   0  0  0  0  0  0  0  0  0  0  0  0
    4.9830   -1.5240   -2.2504 C   0  0  0  0  0  0  0  0  0  0  0  0
    3.5166   -1.8141   -0.2552 C   0  0  0  0  0  0  0  0  0  0  0  0
    3.6218   -2.3971    0.9450 C   0  0  0  0  0  0  0  0  0  0  0  0
    4.1695   -3.5677    1.1746 C   0  0  0  0  0  0  0  0  0  0  0  0
    4.7595   -4.3411    0.2530 C   0  0  0  0  0  0  0  0  0  0  0  0
    5.3533   -5.5251    0.4462 O   0  0  0  0  0  0  0  0  0  0  0  0
    4.8931   -3.8416   -1.1875 C   0  0  0  0  0  0  0  0  0  0  0  0
    3.8492   -3.4604    2.6474 C   0  0  2  0  0  0  0  0  0  0  0  0
    2.8019   -4.3923    3.2444 C   0  0  0  0  0  0  0  0  0  0  0  0
    2.9321   -5.7960    3.2235 C   0  0  0  0  0  0  0  0  0  0  0  0
    1.9501   -6.5931    3.8492 C   0  0  0  0  0  0  0  0  0  0  0  0
    0.8555   -5.9934    4.5062 C   0  0  0  0  0  0  0  0  0  0  0  0
    0.7366   -4.5930    4.5391 C   0  0  0  0  0  0  0  0  0  0  0  0
    1.6940   -3.7952    3.8892 C   0  0  0  0  0  0  0  0  0  0  0  0
    1.5402   -2.4295    3.8756 O   0  0  0  0  0  0  0  0  0  0  0  0
    1.9275   -1.8186    2.6803 C   0  0  1  0  0  0  0  0  0  0  0  0
    1.6823   -0.3535    2.8332 C   0  0  0  0  0  0  0  0  0  0  0  0
    0.9223    0.5404    2.1328 C   0  0  0  0  0  0  0  0  0  0  0  0
    1.1017    1.8027    2.7657 C   0  0  0  0  0  0  0  0  0  0  0  0
    1.9580    1.5792    3.8042 C   0  0  0  0  0  0  0  0  0  0  0  0
    2.3209    0.2693    3.8652 O   0  0  0  0  0  0  0  0  0  0  0  0
    3.2841   -2.1445    2.2660 N   0  0  0  0  0  0  0  0  0  0  0  0
    3.1719   -3.3385   -3.3397 H   0  0  0  0  0  0  0  0  0  0  0  0
    2.2743   -1.9881   -2.6357 H   0  0  0  0  0  0  0  0  0  0  0  0
    2.2177   -3.5665   -1.8833 H   0  0  0  0  0  0  0  0  0  0  0  0
    5.3848   -1.9540   -3.1661 H   0  0  0  0  0  0  0  0  0  0  0  0
    5.8282   -1.2357   -1.6261 H   0  0  0  0  0  0  0  0  0  0  0  0
    4.4578   -0.6041   -2.5101 H   0  0  0  0  0  0  0  0  0  0  0  0
    4.6151   -4.6441   -1.8675 H   0  0  0  0  0  0  0  0  0  0  0  0
    5.9569   -3.6789   -1.3870 H   0  0  0  0  0  0  0  0  0  0  0  0
    4.6832   -3.3100    3.3341 H   0  0  0  0  0  0  0  0  0  0  0  0
    3.7824   -6.2632    2.7442 H   0  0  0  0  0  0  0  0  0  0  0  0
    2.0427   -7.6677    3.8383 H   0  0  0  0  0  0  0  0  0  0  0  0
    0.1075   -6.6077    4.9802 H   0  0  0  0  0  0  0  0  0  0  0  0
   -0.1039   -4.1220    5.0281 H   0  0  0  0  0  0  0  0  0  0  0  0
    1.2622   -2.1873    1.8984 H   0  0  0  0  0  0  0  0  0  0  0  0
    0.3164    0.3050    1.2704 H   0  0  0  0  0  0  0  0  0  0  0  0
    0.6628    2.7536    2.4911 H   0  0  0  0  0  0  0  0  0  0  0  0
    2.3909    2.2092    4.5654 H   0  0  0  0  0  0  0  0  0  0  0  0
    3.0309   -0.8573   -0.3759 H   0  0  0  0  0  0  0  0  0  0  0  0
    5.2246   -5.7684    1.3458 H   0  0  0  0  0  0  0  0  0  0  0  0
  1  2  1  0
  1 25  1  0
  1 26  1  0
  1 27  1  0
  2  9  1  0
  2  3  1  0
  2  4  1  0
  3 28  1  0
  3 29  1  0
  3 30  1  0
  4  5  2  0
  4 42  1  0
  5 24  1  0
  5  6  1  0
  6  7  2  0
  6 10  1  0
  7  8  1  0
  7  9  1  0
  8 43  1  0
  9 31  1  0
  9 32  1  0
 10 24  1  0
 10 11  1  0
 10 33  1  1
 11 16  2  0
 11 12  1  0
 12 13  2  0
 12 34  1  0
 13 14  1  0
 13 35  1  0
 14 15  2  0
 14 36  1  0
 15 16  1  0
 15 37  1  0
 16 17  1  0
 17 18  1  0
 18 19  1  0
 18 24  1  0
 18 38  1  6
 19 23  1  0
 19 20  2  0
 20 21  1  0
 20 39  1  0
 21 22  2  0
 21 40  1  0
 22 23  1  0
 22 41  1  0
M  END
>  <i_m_ct_stereo_status>  (281) 
1

>  <s_m_source_file>  (281) 
/var/tmp/pbs.5076255.sched01/tmp7yh4k8o6/114t33l0ocj.sdf

>  <i_m_source_file_index>  (281) 
18

>  <i_lp_mmshare_version>  (281) 
48012

>  <i_f3d_flags>  (281) 
0

>  <s_epik_input>  (281) 
W0NIM11DKFtDSDNdKShbQ0hdPTEpW0NIMl1DKD1PKVtDQEBIXShDMTIpW0NAQEhdM2M0YyhbY0hdW2NIXVtjSF1bY0hdNClPW0NASF0oTjIzKWM1W2NIXVtjSF1bY0hdbzU=

>  <s_epik_cmdline>  (281) 
J2VwaWtfcHl0aG9uJywgJy1waHQnLCAnMi4wJywgJy1waCcsICc3LjAnLCAnLXRuJywgJzgnLCAnLW1hJywgJzIwMCcsICctaW1hZScsICc8aW5maWxlLm1hZT4nLCAnLW9tYWUnLCAnPG91dGZpbGUubWFlPic=

>  <r_lp_tautomer_probability>  (281) 
1

>  <r_epik_Ionization_Penalty>  (281) 
0.250721

>  <r_epik_Ionization_Penalty_Charging>  (281) 
3.17247e-09

>  <r_epik_Ionization_Penalty_Neutral>  (281) 
0.250721

>  <r_epik_State_Penalty>  (281) 
0.242055

>  <r_epik_Charging_Adjusted_Penalty>  (281) 
0.242055

>  <i_epik_Tot_Q>  (281) 
0

>  <i_epik_Tot_abs_Q>  (281) 
0

>  <s_epik_Chemistry_Notes>  (281) 
This compound has an imine and may undergo hydrolysis. This compound contains an acetal/aminal-like group ( X-CH(R)-Y where X, Y are N, S, or O) that may be acid/base labile, releasing an aldehyde.

>  <s_lp_Force_Field>  (281) 
OPLS3e

>  <r_lp_Energy>  (281) 
52.2199

>  <b_lp_Chiralities_Consistent>  (281) 
1

>  <s_lp_Variant>  (281) 
98:0-1

>  <s_i_glide_gridfile>  (281) 
pfpi4k_grid

>  <i_i_glide_lignum>  (281) 
18

>  <i_i_glide_rotatable_bonds>  (281) 
2

>  <r_i_docking_score>  (281) 
-2.59474

>  <r_i_glide_ligand_efficiency>  (281) 
-0.108114

>  <r_i_glide_ligand_efficiency_sa>  (281) 
-0.311855

>  <r_i_glide_ligand_efficiency_ln>  (281) 
-0.621041

>  <r_i_glide_gscore>  (281) 
-2.59474

>  <r_i_glide_lipo>  (281) 
-0.061226

>  <r_i_glide_hbond>  (281) 
0

>  <r_i_glide_metal>  (281) 
-0

>  <r_i_glide_rewards>  (281) 
-1.21793

>  <r_i_glide_evdw>  (281) 
-24.4855

>  <r_i_glide_ecoul>  (281) 
-1.70904

>  <r_i_glide_erotb>  (281) 
0.180925

>  <r_i_glide_esite>  (281) 
-0.0158758

>  <r_i_glide_emodel>  (281) 
-30.2247

>  <r_i_glide_energy>  (281) 
-26.1945

>  <r_i_glide_einternal>  (281) 
0.635362

>  <r_i_glide_intrahb_reward>  (281) 
-0

>  <i_i_glide_confnum>  (281) 
3

>  <i_i_glide_posenum>  (281) 
7

>  <r_i_glide_eff_state_penalty>  (281) 
0

>  <ligand_id>  (281) 
98

>  <original_smiles>  (281) 
CC1(C)C=C2C(C(=O)C1)C1c3ccccc3OC(c3ccco3)N21

>  <smiles>  (281) 
[H]OC1=C2C(=C([H])C(C([H])([H])[H])(C([H])([H])[H])C1([H])[H])N1C([H])(c3oc([H])c([H])c3[H])Oc3c([H])c([H])c([H])c([H])c3C21[H]

$$$$
98:1:0
     RDKit          3D

 42 46  0  0  1  0  0  0  0  0999 V2000
    3.9434   -4.2291    2.0077 C   0  0  0  0  0  0  0  0  0  0  0  0
    3.8235   -5.2895    0.9015 C   0  0  0  0  0  0  0  0  0  0  0  0
    4.7298   -4.8873   -0.2872 C   0  0  0  0  0  0  0  0  0  0  0  0
    4.3375   -6.6083    1.4918 C   0  0  0  0  0  0  0  0  0  0  0  0
    3.4581   -7.5740    1.7885 C   0  0  0  0  0  0  0  0  0  0  0  0
    2.1612   -7.5056    1.6154 C   0  0  0  0  0  0  0  0  0  0  0  0
    1.4307   -6.4957    1.0294 C   0  0  0  0  0  0  0  0  0  0  0  0
    0.2180   -6.3152    0.7766 O   0  0  0  0  0  0  0  0  0  0  0  0
    2.3071   -5.3546    0.4320 C   0  0  0  0  0  0  0  0  0  0  0  0
    1.9937   -8.8797    2.2241 C   0  0  2  0  0  0  0  0  0  0  0  0
    1.3107   -8.9781    3.5802 C   0  0  0  0  0  0  0  0  0  0  0  0
   -0.0003   -8.5055    3.8077 C   0  0  0  0  0  0  0  0  0  0  0  0
   -0.5727   -8.6654    5.0876 C   0  0  0  0  0  0  0  0  0  0  0  0
    0.1379   -9.3300    6.1138 C   0  0  0  0  0  0  0  0  0  0  0  0
    1.4374   -9.8111    5.8742 C   0  0  0  0  0  0  0  0  0  0  0  0
    2.0286   -9.6137    4.6163 C   0  0  0  0  0  0  0  0  0  0  0  0
    3.3206  -10.0200    4.4031 O   0  0  0  0  0  0  0  0  0  0  0  0
    4.0716   -9.1438    3.6241 C   0  0  1  0  0  0  0  0  0  0  0  0
    5.4301   -9.7303    3.5001 C   0  0  0  0  0  0  0  0  0  0  0  0
    5.9023  -10.9291    3.0415 C   0  0  0  0  0  0  0  0  0  0  0  0
    7.3157  -10.8824    3.1925 C   0  0  0  0  0  0  0  0  0  0  0  0
    7.5999   -9.6487    3.7075 C   0  0  0  0  0  0  0  0  0  0  0  0
    6.4598   -8.9374    3.9036 O   0  0  0  0  0  0  0  0  0  0  0  0
    3.4719   -8.8527    2.3299 N   0  0  0  0  0  0  0  0  0  0  0  0
    3.6479   -3.2349    1.6711 H   0  0  0  0  0  0  0  0  0  0  0  0
    4.9565   -4.1657    2.4033 H   0  0  0  0  0  0  0  0  0  0  0  0
    3.2955   -4.4931    2.8409 H   0  0  0  0  0  0  0  0  0  0  0  0
    4.4408   -3.9361   -0.7389 H   0  0  0  0  0  0  0  0  0  0  0  0
    4.6940   -5.6351   -1.0798 H   0  0  0  0  0  0  0  0  0  0  0  0
    5.7773   -4.8036    0.0077 H   0  0  0  0  0  0  0  0  0  0  0  0
    1.8364   -4.3896    0.5868 H   0  0  0  0  0  0  0  0  0  0  0  0
    2.2872   -5.4565   -0.6529 H   0  0  0  0  0  0  0  0  0  0  0  0
    1.6924   -9.6894    1.5594 H   0  0  0  0  0  0  0  0  0  0  0  0
   -0.5707   -8.0536    3.0069 H   0  0  0  0  0  0  0  0  0  0  0  0
   -1.5947   -8.3728    5.2648 H   0  0  0  0  0  0  0  0  0  0  0  0
   -0.3230   -9.5109    7.0728 H   0  0  0  0  0  0  0  0  0  0  0  0
    1.9840  -10.3133    6.6557 H   0  0  0  0  0  0  0  0  0  0  0  0
    4.1341   -8.2052    4.1766 H   0  0  0  0  0  0  0  0  0  0  0  0
    5.2903  -11.7323    2.6483 H   0  0  0  0  0  0  0  0  0  0  0  0
    8.0379  -11.6432    2.9385 H   0  0  0  0  0  0  0  0  0  0  0  0
    8.5109   -9.1408    3.9772 H   0  0  0  0  0  0  0  0  0  0  0  0
    5.4006   -6.7169    1.6736 H   0  0  0  0  0  0  0  0  0  0  0  0
  1  2  1  0
  1 25  1  0
  1 26  1  0
  1 27  1  0
  2  9  1  0
  2  3  1  0
  2  4  1  0
  3 28  1  0
  3 29  1  0
  3 30  1  0
  4  5  2  0
  4 42  1  0
  5 24  1  0
  5  6  1  0
  6  7  2  0
  6 10  1  0
  7  8  1  0
  7  9  1  0
  9 31  1  0
  9 32  1  0
 10 24  1  0
 10 11  1  0
 10 33  1  6
 11 16  2  0
 11 12  1  0
 12 13  2  0
 12 34  1  0
 13 14  1  0
 13 35  1  0
 14 15  2  0
 14 36  1  0
 15 16  1  0
 15 37  1  0
 16 17  1  0
 17 18  1  0
 18 19  1  0
 18 24  1  0
 18 38  1  1
 19 23  1  0
 19 20  2  0
 20 21  1  0
 20 39  1  0
 21 22  2  0
 21 40  1  0
 22 23  1  0
 22 41  1  0
M  CHG  1   8  -1
M  END
>  <i_m_ct_stereo_status>  (282) 
1

>  <s_m_source_file>  (282) 
/var/tmp/pbs.5076255.sched01/tmp7yh4k8o6/114t33l0ocj.sdf

>  <i_m_source_file_index>  (282) 
19

>  <i_lp_mmshare_version>  (282) 
48012

>  <i_f3d_flags>  (282) 
0

>  <s_epik_input>  (282) 
W0NIM11DKFtDSDNdKShbQ0hdPTEpW0NIMl1DKD1PKVtDQEBIXShDMTIpW0NAQEhdM2M0YyhbY0hdW2NIXVtjSF1bY0hdNClPW0NASF0oTjIzKWM1W2NIXVtjSF1bY0hdbzU=

>  <s_epik_cmdline>  (282) 
J2VwaWtfcHl0aG9uJywgJy1waHQnLCAnMi4wJywgJy1waCcsICc3LjAnLCAnLXRuJywgJzgnLCAnLW1hJywgJzIwMCcsICctaW1hZScsICc8aW5maWxlLm1hZT4nLCAnLW9tYWUnLCAnPG91dGZpbGUubWFlPic=

>  <r_lp_tautomer_probability>  (282) 
1

>  <r_epik_Ionization_Penalty>  (282) 
0.631006

>  <r_epik_Ionization_Penalty_Charging>  (282) 
0.630484

>  <r_epik_Ionization_Penalty_Neutral>  (282) 
0.000522636

>  <r_epik_State_Penalty>  (282) 
0.647283

>  <r_epik_Charging_Adjusted_Penalty>  (282) 
1.27777

>  <i_epik_Tot_Q>  (282) 
-1

>  <i_epik_Tot_abs_Q>  (282) 
1

>  <s_epik_Chemistry_Notes>  (282) 
This compound has an imine and may undergo hydrolysis. This compound contains an acetal/aminal-like group ( X-CH(R)-Y where X, Y are N, S, or O) that may be acid/base labile, releasing an aldehyde.

>  <s_lp_Force_Field>  (282) 
OPLS3e

>  <r_lp_Energy>  (282) 
52.5966

>  <b_lp_Chiralities_Consistent>  (282) 
1

>  <s_lp_Variant>  (282) 
98:0-2

>  <s_i_glide_gridfile>  (282) 
pfpi4k_grid

>  <i_i_glide_lignum>  (282) 
19

>  <i_i_glide_rotatable_bonds>  (282) 
1

>  <r_i_docking_score>  (282) 
-2.75019

>  <r_i_glide_ligand_efficiency>  (282) 
-0.114591

>  <r_i_glide_ligand_efficiency_sa>  (282) 
-0.330539

>  <r_i_glide_ligand_efficiency_ln>  (282) 
-0.658247

>  <r_i_glide_gscore>  (282) 
-2.75019

>  <r_i_glide_lipo>  (282) 
-0.14705

>  <r_i_glide_hbond>  (282) 
-0.2

>  <r_i_glide_metal>  (282) 
-0

>  <r_i_glide_rewards>  (282) 
-1.22481

>  <r_i_glide_evdw>  (282) 
-20.0292

>  <r_i_glide_ecoul>  (282) 
-2.23861

>  <r_i_glide_erotb>  (282) 
0.181929

>  <r_i_glide_esite>  (282) 
-0.0230142

>  <r_i_glide_emodel>  (282) 
-27.5531

>  <r_i_glide_energy>  (282) 
-22.2678

>  <r_i_glide_einternal>  (282) 
0.8382

>  <r_i_glide_intrahb_reward>  (282) 
-0

>  <i_i_glide_confnum>  (282) 
4

>  <i_i_glide_posenum>  (282) 
28

>  <r_i_glide_eff_state_penalty>  (282) 
0

>  <ligand_id>  (282) 
98

>  <original_smiles>  (282) 
CC1(C)C=C2C(C(=O)C1)C1c3ccccc3OC(c3ccco3)N21

>  <smiles>  (282) 
[H]C1=C2C(=C([O-])C([H])([H])C1(C([H])([H])[H])C([H])([H])[H])C1([H])c3c([H])c([H])c([H])c([H])c3OC([H])(c3oc([H])c([H])c3[H])N21

$$$$
98:1:1
     RDKit          3D

 42 46  0  0  1  0  0  0  0  0999 V2000
    3.4945   -3.6336    2.8450 C   0  0  0  0  0  0  0  0  0  0  0  0
    3.9126   -4.3676    1.5637 C   0  0  0  0  0  0  0  0  0  0  0  0
    4.8193   -3.4479    0.7172 C   0  0  0  0  0  0  0  0  0  0  0  0
    4.7168   -5.5973    1.9914 C   0  0  0  0  0  0  0  0  0  0  0  0
    4.1687   -6.8082    1.8767 C   0  0  0  0  0  0  0  0  0  0  0  0
    2.9581   -7.0681    1.4280 C   0  0  0  0  0  0  0  0  0  0  0  0
    2.0368   -6.1745    0.9189 C   0  0  0  0  0  0  0  0  0  0  0  0
    0.8606   -6.2623    0.4975 O   0  0  0  0  0  0  0  0  0  0  0  0
    2.6103   -4.7367    0.7410 C   0  0  0  0  0  0  0  0  0  0  0  0
    3.1403   -8.5391    1.7133 C   0  0  2  0  0  0  0  0  0  0  0  0
    2.3182   -9.1744    2.8261 C   0  0  0  0  0  0  0  0  0  0  0  0
    0.9082   -9.1742    2.8135 C   0  0  0  0  0  0  0  0  0  0  0  0
    0.2174   -9.8372    3.8476 C   0  0  0  0  0  0  0  0  0  0  0  0
    0.9245  -10.5013    4.8737 C   0  0  0  0  0  0  0  0  0  0  0  0
    2.3283  -10.5058    4.8759 C   0  0  0  0  0  0  0  0  0  0  0  0
    3.0222   -9.8245    3.8619 C   0  0  0  0  0  0  0  0  0  0  0  0
    4.3935   -9.7801    3.8884 O   0  0  0  0  0  0  0  0  0  0  0  0
    4.9412   -8.5665    3.4797 C   0  0  1  0  0  0  0  0  0  0  0  0
    6.4296   -8.6755    3.5801 C   0  0  0  0  0  0  0  0  0  0  0  0
    7.4432   -7.8177    3.2657 C   0  0  0  0  0  0  0  0  0  0  0  0
    8.6544   -8.4854    3.6001 C   0  0  0  0  0  0  0  0  0  0  0  0
    8.2874   -9.7025    4.0891 C   0  0  0  0  0  0  0  0  0  0  0  0
    6.9360   -9.8362    4.0886 O   0  0  0  0  0  0  0  0  0  0  0  0
    4.4945   -8.1341    2.1634 N   0  0  0  0  0  0  0  0  0  0  0  0
    2.9524   -2.7112    2.6363 H   0  0  0  0  0  0  0  0  0  0  0  0
    4.3535   -3.3936    3.4692 H   0  0  0  0  0  0  0  0  0  0  0  0
    2.8400   -4.2708    3.4349 H   0  0  0  0  0  0  0  0  0  0  0  0
    4.3115   -2.5337    0.4044 H   0  0  0  0  0  0  0  0  0  0  0  0
    5.1570   -3.9506   -0.1902 H   0  0  0  0  0  0  0  0  0  0  0  0
    5.7155   -3.1512    1.2631 H   0  0  0  0  0  0  0  0  0  0  0  0
    1.8402   -3.9995    0.9638 H   0  0  0  0  0  0  0  0  0  0  0  0
    2.8191   -4.5779   -0.3231 H   0  0  0  0  0  0  0  0  0  0  0  0
    3.2294   -9.2083    0.8556 H   0  0  0  0  0  0  0  0  0  0  0  0
    0.3641   -8.6876    2.0130 H   0  0  0  0  0  0  0  0  0  0  0  0
   -0.8601   -9.8523    3.8538 H   0  0  0  0  0  0  0  0  0  0  0  0
    0.3943  -11.0071    5.6670 H   0  0  0  0  0  0  0  0  0  0  0  0
    2.8690  -11.0023    5.6661 H   0  0  0  0  0  0  0  0  0  0  0  0
    4.6105   -7.8117    4.1912 H   0  0  0  0  0  0  0  0  0  0  0  0
    7.3243   -6.8337    2.8329 H   0  0  0  0  0  0  0  0  0  0  0  0
    9.6645   -8.1252    3.4668 H   0  0  0  0  0  0  0  0  0  0  0  0
    8.8321  -10.5582    4.4525 H   0  0  0  0  0  0  0  0  0  0  0  0
    5.7040   -5.4327    2.3988 H   0  0  0  0  0  0  0  0  0  0  0  0
  1  2  1  0
  1 25  1  0
  1 26  1  0
  1 27  1  0
  2  9  1  0
  2  3  1  0
  2  4  1  0
  3 28  1  0
  3 29  1  0
  3 30  1  0
  4  5  2  0
  4 42  1  0
  5 24  1  0
  5  6  1  0
  6  7  2  0
  6 10  1  0
  7  8  1  0
  7  9  1  0
  9 31  1  0
  9 32  1  0
 10 24  1  0
 10 11  1  0
 10 33  1  6
 11 16  2  0
 11 12  1  0
 12 13  2  0
 12 34  1  0
 13 14  1  0
 13 35  1  0
 14 15  2  0
 14 36  1  0
 15 16  1  0
 15 37  1  0
 16 17  1  0
 17 18  1  0
 18 19  1  0
 18 24  1  0
 18 38  1  1
 19 23  1  0
 19 20  2  0
 20 21  1  0
 20 39  1  0
 21 22  2  0
 21 40  1  0
 22 23  1  0
 22 41  1  0
M  CHG  1   8  -1
M  END
>  <i_m_ct_stereo_status>  (283) 
1

>  <s_m_source_file>  (283) 
/var/tmp/pbs.5076255.sched01/tmp7yh4k8o6/114t33l0ocj.sdf

>  <i_m_source_file_index>  (283) 
19

>  <i_lp_mmshare_version>  (283) 
48012

>  <i_f3d_flags>  (283) 
0

>  <s_epik_input>  (283) 
W0NIM11DKFtDSDNdKShbQ0hdPTEpW0NIMl1DKD1PKVtDQEBIXShDMTIpW0NAQEhdM2M0YyhbY0hdW2NIXVtjSF1bY0hdNClPW0NASF0oTjIzKWM1W2NIXVtjSF1bY0hdbzU=

>  <s_epik_cmdline>  (283) 
J2VwaWtfcHl0aG9uJywgJy1waHQnLCAnMi4wJywgJy1waCcsICc3LjAnLCAnLXRuJywgJzgnLCAnLW1hJywgJzIwMCcsICctaW1hZScsICc8aW5maWxlLm1hZT4nLCAnLW9tYWUnLCAnPG91dGZpbGUubWFlPic=

>  <r_lp_tautomer_probability>  (283) 
1

>  <r_epik_Ionization_Penalty>  (283) 
0.631006

>  <r_epik_Ionization_Penalty_Charging>  (283) 
0.630484

>  <r_epik_Ionization_Penalty_Neutral>  (283) 
0.000522636

>  <r_epik_State_Penalty>  (283) 
0.647283

>  <r_epik_Charging_Adjusted_Penalty>  (283) 
1.27777

>  <i_epik_Tot_Q>  (283) 
-1

>  <i_epik_Tot_abs_Q>  (283) 
1

>  <s_epik_Chemistry_Notes>  (283) 
This compound has an imine and may undergo hydrolysis. This compound contains an acetal/aminal-like group ( X-CH(R)-Y where X, Y are N, S, or O) that may be acid/base labile, releasing an aldehyde.

>  <s_lp_Force_Field>  (283) 
OPLS3e

>  <r_lp_Energy>  (283) 
52.5966

>  <b_lp_Chiralities_Consistent>  (283) 
1

>  <s_lp_Variant>  (283) 
98:0-2

>  <s_i_glide_gridfile>  (283) 
pfpi4k_grid

>  <i_i_glide_lignum>  (283) 
19

>  <i_i_glide_rotatable_bonds>  (283) 
1

>  <r_i_docking_score>  (283) 
-2.72728

>  <r_i_glide_ligand_efficiency>  (283) 
-0.113637

>  <r_i_glide_ligand_efficiency_sa>  (283) 
-0.327785

>  <r_i_glide_ligand_efficiency_ln>  (283) 
-0.652764

>  <r_i_glide_gscore>  (283) 
-2.72728

>  <r_i_glide_lipo>  (283) 
-0.169038

>  <r_i_glide_hbond>  (283) 
-0.225098

>  <r_i_glide_metal>  (283) 
-0

>  <r_i_glide_rewards>  (283) 
-1.22481

>  <r_i_glide_evdw>  (283) 
-20.0352

>  <r_i_glide_ecoul>  (283) 
-1.91245

>  <r_i_glide_erotb>  (283) 
0.181929

>  <r_i_glide_esite>  (283) 
-0.00164229

>  <r_i_glide_emodel>  (283) 
-27.6146

>  <r_i_glide_energy>  (283) 
-21.9477

>  <r_i_glide_einternal>  (283) 
0.0152984

>  <r_i_glide_intrahb_reward>  (283) 
-0

>  <i_i_glide_confnum>  (283) 
4

>  <i_i_glide_posenum>  (283) 
18

>  <r_i_glide_eff_state_penalty>  (283) 
0

>  <ligand_id>  (283) 
98

>  <original_smiles>  (283) 
CC1(C)C=C2C(C(=O)C1)C1c3ccccc3OC(c3ccco3)N21

>  <smiles>  (283) 
[H]C1=C2C(=C([O-])C([H])([H])C1(C([H])([H])[H])C([H])([H])[H])C1([H])c3c([H])c([H])c([H])c([H])c3OC([H])(c3oc([H])c([H])c3[H])N21

$$$$
98:1:2
     RDKit          3D

 42 46  0  0  1  0  0  0  0  0999 V2000
    2.8875   -3.0466   -2.2250 C   0  0  0  0  0  0  0  0  0  0  0  0
    4.1100   -2.5594   -1.4340 C   0  0  0  0  0  0  0  0  0  0  0  0
    4.9367   -1.5982   -2.3106 C   0  0  0  0  0  0  0  0  0  0  0  0
    3.5862   -1.7823   -0.2190 C   0  0  0  0  0  0  0  0  0  0  0  0
    3.6714   -2.3307    0.9930 C   0  0  0  0  0  0  0  0  0  0  0  0
    4.1896   -3.5067    1.2661 C   0  0  0  0  0  0  0  0  0  0  0  0
    4.8185   -4.3758    0.4014 C   0  0  0  0  0  0  0  0  0  0  0  0
    5.3602   -5.4950    0.5180 O   0  0  0  0  0  0  0  0  0  0  0  0
    4.9971   -3.8176   -1.0403 C   0  0  0  0  0  0  0  0  0  0  0  0
    3.8253   -3.3607    2.7221 C   0  0  2  0  0  0  0  0  0  0  0  0
    2.7348   -4.2554    3.3054 C   0  0  0  0  0  0  0  0  0  0  0  0
    2.8243   -5.6639    3.3035 C   0  0  0  0  0  0  0  0  0  0  0  0
    1.8033   -6.4234    3.9187 C   0  0  0  0  0  0  0  0  0  0  0  0
    0.7112   -5.7809    4.5416 C   0  0  0  0  0  0  0  0  0  0  0  0
    0.6361   -4.3769    4.5521 C   0  0  0  0  0  0  0  0  0  0  0  0
    1.6328   -3.6170    3.9146 C   0  0  0  0  0  0  0  0  0  0  0  0
    1.5216   -2.2496    3.8756 O   0  0  0  0  0  0  0  0  0  0  0  0
    1.9540   -1.6726    2.6783 C   0  0  1  0  0  0  0  0  0  0  0  0
    1.7579   -0.1997    2.7933 C   0  0  0  0  0  0  0  0  0  0  0  0
    1.3458    0.7453    1.9025 C   0  0  0  0  0  0  0  0  0  0  0  0
    1.3770    1.9864    2.5920 C   0  0  0  0  0  0  0  0  0  0  0  0
    1.8116    1.7054    3.8545 C   0  0  0  0  0  0  0  0  0  0  0  0
    2.0480    0.3733    3.9973 O   0  0  0  0  0  0  0  0  0  0  0  0
    3.3103   -2.0374    2.3039 N   0  0  0  0  0  0  0  0  0  0  0  0
    3.1642   -3.5698   -3.1409 H   0  0  0  0  0  0  0  0  0  0  0  0
    2.2299   -2.2224   -2.4871 H   0  0  0  0  0  0  0  0  0  0  0  0
    2.3086   -3.7402   -1.6154 H   0  0  0  0  0  0  0  0  0  0  0  0
    5.3125   -2.0917   -3.2057 H   0  0  0  0  0  0  0  0  0  0  0  0
    5.7978   -1.2103   -1.7665 H   0  0  0  0  0  0  0  0  0  0  0  0
    4.3512   -0.7350   -2.6279 H   0  0  0  0  0  0  0  0  0  0  0  0
    4.8528   -4.6102   -1.7761 H   0  0  0  0  0  0  0  0  0  0  0  0
    6.0478   -3.5427   -1.1637 H   0  0  0  0  0  0  0  0  0  0  0  0
    4.6474   -3.2321    3.4260 H   0  0  0  0  0  0  0  0  0  0  0  0
    3.6730   -6.1553    2.8445 H   0  0  0  0  0  0  0  0  0  0  0  0
    1.8606   -7.4997    3.9269 H   0  0  0  0  0  0  0  0  0  0  0  0
   -0.0693   -6.3606    5.0062 H   0  0  0  0  0  0  0  0  0  0  0  0
   -0.1985   -3.8710    5.0120 H   0  0  0  0  0  0  0  0  0  0  0  0
    1.2987   -2.0358    1.8848 H   0  0  0  0  0  0  0  0  0  0  0  0
    1.0545    0.5515    0.8799 H   0  0  0  0  0  0  0  0  0  0  0  0
    1.1093    2.9587    2.2095 H   0  0  0  0  0  0  0  0  0  0  0  0
    1.9930    2.3023    4.7338 H   0  0  0  0  0  0  0  0  0  0  0  0
    3.1151   -0.8211   -0.3808 H   0  0  0  0  0  0  0  0  0  0  0  0
  1  2  1  0
  1 25  1  0
  1 26  1  0
  1 27  1  0
  2  9  1  0
  2  3  1  0
  2  4  1  0
  3 28  1  0
  3 29  1  0
  3 30  1  0
  4  5  2  0
  4 42  1  0
  5 24  1  0
  5  6  1  0
  6  7  2  0
  6 10  1  0
  7  8  1  0
  7  9  1  0
  9 31  1  0
  9 32  1  0
 10 24  1  0
 10 11  1  0
 10 33  1  1
 11 16  2  0
 11 12  1  0
 12 13  2  0
 12 34  1  0
 13 14  1  0
 13 35  1  0
 14 15  2  0
 14 36  1  0
 15 16  1  0
 15 37  1  0
 16 17  1  0
 17 18  1  0
 18 19  1  0
 18 24  1  0
 18 38  1  6
 19 23  1  0
 19 20  2  0
 20 21  1  0
 20 39  1  0
 21 22  2  0
 21 40  1  0
 22 23  1  0
 22 41  1  0
M  CHG  1   8  -1
M  END
>  <i_m_ct_stereo_status>  (284) 
1

>  <s_m_source_file>  (284) 
/var/tmp/pbs.5076255.sched01/tmp7yh4k8o6/114t33l0ocj.sdf

>  <i_m_source_file_index>  (284) 
19

>  <i_lp_mmshare_version>  (284) 
48012

>  <i_f3d_flags>  (284) 
0

>  <s_epik_input>  (284) 
W0NIM11DKFtDSDNdKShbQ0hdPTEpW0NIMl1DKD1PKVtDQEBIXShDMTIpW0NAQEhdM2M0YyhbY0hdW2NIXVtjSF1bY0hdNClPW0NASF0oTjIzKWM1W2NIXVtjSF1bY0hdbzU=

>  <s_epik_cmdline>  (284) 
J2VwaWtfcHl0aG9uJywgJy1waHQnLCAnMi4wJywgJy1waCcsICc3LjAnLCAnLXRuJywgJzgnLCAnLW1hJywgJzIwMCcsICctaW1hZScsICc8aW5maWxlLm1hZT4nLCAnLW9tYWUnLCAnPG91dGZpbGUubWFlPic=

>  <r_lp_tautomer_probability>  (284) 
1

>  <r_epik_Ionization_Penalty>  (284) 
0.631006

>  <r_epik_Ionization_Penalty_Charging>  (284) 
0.630484

>  <r_epik_Ionization_Penalty_Neutral>  (284) 
0.000522636

>  <r_epik_State_Penalty>  (284) 
0.647283

>  <r_epik_Charging_Adjusted_Penalty>  (284) 
1.27777

>  <i_epik_Tot_Q>  (284) 
-1

>  <i_epik_Tot_abs_Q>  (284) 
1

>  <s_epik_Chemistry_Notes>  (284) 
This compound has an imine and may undergo hydrolysis. This compound contains an acetal/aminal-like group ( X-CH(R)-Y where X, Y are N, S, or O) that may be acid/base labile, releasing an aldehyde.

>  <s_lp_Force_Field>  (284) 
OPLS3e

>  <r_lp_Energy>  (284) 
52.5966

>  <b_lp_Chiralities_Consistent>  (284) 
1

>  <s_lp_Variant>  (284) 
98:0-2

>  <s_i_glide_gridfile>  (284) 
pfpi4k_grid

>  <i_i_glide_lignum>  (284) 
19

>  <i_i_glide_rotatable_bonds>  (284) 
1

>  <r_i_docking_score>  (284) 
-2.37748

>  <r_i_glide_ligand_efficiency>  (284) 
-0.0990616

>  <r_i_glide_ligand_efficiency_sa>  (284) 
-0.285743

>  <r_i_glide_ligand_efficiency_ln>  (284) 
-0.569039

>  <r_i_glide_gscore>  (284) 
-2.37748

>  <r_i_glide_lipo>  (284) 
-0.0921963

>  <r_i_glide_hbond>  (284) 
0

>  <r_i_glide_metal>  (284) 
-0

>  <r_i_glide_rewards>  (284) 
-1.22481

>  <r_i_glide_evdw>  (284) 
-23.5735

>  <r_i_glide_ecoul>  (284) 
-0.308912

>  <r_i_glide_erotb>  (284) 
0.181929

>  <r_i_glide_esite>  (284) 
-0.0173939

>  <r_i_glide_emodel>  (284) 
-28.6582

>  <r_i_glide_energy>  (284) 
-23.8824

>  <r_i_glide_einternal>  (284) 
0.415656

>  <r_i_glide_intrahb_reward>  (284) 
-0

>  <i_i_glide_confnum>  (284) 
1

>  <i_i_glide_posenum>  (284) 
10

>  <r_i_glide_eff_state_penalty>  (284) 
0

>  <ligand_id>  (284) 
98

>  <original_smiles>  (284) 
CC1(C)C=C2C(C(=O)C1)C1c3ccccc3OC(c3ccco3)N21

>  <smiles>  (284) 
[H]C1=C2C(=C([O-])C([H])([H])C1(C([H])([H])[H])C([H])([H])[H])C1([H])c3c([H])c([H])c([H])c([H])c3OC([H])(c3oc([H])c([H])c3[H])N21

$$$$
99:0:0
     RDKit          3D

 27 29  0  0  1  0  0  0  0  0999 V2000
    3.8168   -2.1686   -4.1754 O   0  0  0  0  0  0  0  0  0  0  0  0
    4.1409   -2.3659   -2.8126 C   0  0  1  0  0  0  0  0  0  0  0  0
    4.5426   -1.0171   -2.1835 C   0  0  0  0  0  0  0  0  0  0  0  0
    4.9002   -1.2156   -0.6948 C   0  0  2  0  0  0  0  0  0  0  0  0
    6.0757   -2.2075   -0.5738 C   0  0  0  0  0  0  0  0  0  0  0  0
    5.6682   -3.5539   -1.1960 C   0  0  1  0  0  0  0  0  0  0  0  0
    4.4483   -4.1241   -0.4467 C   0  0  0  0  0  0  0  0  0  0  0  0
    3.2707   -3.1347   -0.5719 C   0  0  1  0  0  0  0  0  0  0  0  0
    3.6865   -1.7877    0.0643 C   0  0  0  0  0  0  0  0  0  0  0  0
    2.9157   -2.9292   -2.0644 C   0  0  0  0  0  0  0  0  0  0  0  0
    5.3164   -3.3619   -2.6897 C   0  0  0  0  0  0  0  0  0  0  0  0
    2.9872   -1.7111   -4.2178 H   0  0  0  0  0  0  0  0  0  0  0  0
    5.4014   -0.6021   -2.7125 H   0  0  0  0  0  0  0  0  0  0  0  0
    3.7311   -0.2955   -2.2928 H   0  0  0  0  0  0  0  0  0  0  0  0
    5.1755   -0.2577   -0.2521 H   0  0  0  0  0  0  0  0  0  0  0  0
    6.9627   -1.8359   -1.0813 H   0  0  0  0  0  0  0  0  0  0  0  0
    6.3503   -2.3410    0.4738 H   0  0  0  0  0  0  0  0  0  0  0  0
    6.4977   -4.2515   -1.0969 H   0  0  0  0  0  0  0  0  0  0  0  0
    4.1839   -5.0948   -0.8632 H   0  0  0  0  0  0  0  0  0  0  0  0
    4.6946   -4.2962    0.6012 H   0  0  0  0  0  0  0  0  0  0  0  0
    2.4033   -3.5335   -0.0445 H   0  0  0  0  0  0  0  0  0  0  0  0
    3.9313   -1.9324    1.1182 H   0  0  0  0  0  0  0  0  0  0  0  0
    2.8626   -1.0752    0.0423 H   0  0  0  0  0  0  0  0  0  0  0  0
    2.0711   -2.2522   -2.1601 H   0  0  0  0  0  0  0  0  0  0  0  0
    2.5845   -3.8556   -2.5182 H   0  0  0  0  0  0  0  0  0  0  0  0
    5.0428   -4.3187   -3.1376 H   0  0  0  0  0  0  0  0  0  0  0  0
    6.1882   -3.0055   -3.2376 H   0  0  0  0  0  0  0  0  0  0  0  0
  2  1  1  6
  1 12  1  0
  2 10  1  0
  2 11  1  0
  2  3  1  0
  3  4  1  0
  3 13  1  0
  3 14  1  0
  4  9  1  0
  4  5  1  0
  4 15  1  1
  5  6  1  0
  5 16  1  0
  5 17  1  0
  6  7  1  0
  6 11  1  0
  6 18  1  6
  7  8  1  0
  7 19  1  0
  7 20  1  0
  8  9  1  0
  8 10  1  0
  8 21  1  1
  9 22  1  0
  9 23  1  0
 10 24  1  0
 10 25  1  0
 11 26  1  0
 11 27  1  0
M  END
>  <i_m_ct_stereo_status>  (285) 
1

>  <s_m_source_file>  (285) 
/var/tmp/pbs.5076255.sched01/tmp7yh4k8o6/114t33l0ocj.sdf

>  <i_m_source_file_index>  (285) 
20

>  <i_lp_mmshare_version>  (285) 
48012

>  <i_f3d_flags>  (285) 
0

>  <s_epik_input>  (285) 
W09IXUMxMltDSDJdW0NAQEhdM1tDSDJdW0NASF0oW0NIMl0yKVtDSDJdW0NAQEhdKFtDSDJdMylbQ0gyXTE=

>  <s_epik_cmdline>  (285) 
J2VwaWtfcHl0aG9uJywgJy1waHQnLCAnMi4wJywgJy1waCcsICc3LjAnLCAnLXRuJywgJzgnLCAnLW1hJywgJzIwMCcsICctaW1hZScsICc8aW5maWxlLm1hZT4nLCAnLW9tYWUnLCAnPG91dGZpbGUubWFlPic=

>  <r_lp_tautomer_probability>  (285) 
1

>  <r_epik_Ionization_Penalty>  (285) 
5.13329e-06

>  <r_epik_Ionization_Penalty_Charging>  (285) 
0

>  <r_epik_Ionization_Penalty_Neutral>  (285) 
5.13329e-06

>  <r_epik_State_Penalty>  (285) 
-0

>  <r_epik_Charging_Adjusted_Penalty>  (285) 
0

>  <i_epik_Tot_Q>  (285) 
0

>  <i_epik_Tot_abs_Q>  (285) 
0

>  <s_lp_Force_Field>  (285) 
OPLS3e

>  <r_lp_Energy>  (285) 
-15.8074

>  <b_lp_Chiralities_Consistent>  (285) 
1

>  <s_lp_Variant>  (285) 
99:0-1

>  <s_i_glide_gridfile>  (285) 
pfpi4k_grid

>  <i_i_glide_lignum>  (285) 
20

>  <i_i_glide_rotatable_bonds>  (285) 
1

>  <r_i_docking_score>  (285) 
-4.49555

>  <r_i_glide_ligand_efficiency>  (285) 
-0.408687

>  <r_i_glide_ligand_efficiency_sa>  (285) 
-0.908911

>  <r_i_glide_ligand_efficiency_ln>  (285) 
-1.32304

>  <r_i_glide_gscore>  (285) 
-4.49555

>  <r_i_glide_lipo>  (285) 
-0.457717

>  <r_i_glide_hbond>  (285) 
-0.32

>  <r_i_glide_metal>  (285) 
-0

>  <r_i_glide_rewards>  (285) 
-2.25

>  <r_i_glide_evdw>  (285) 
-17.8748

>  <r_i_glide_ecoul>  (285) 
-3.82731

>  <r_i_glide_erotb>  (285) 
0

>  <r_i_glide_esite>  (285) 
0

>  <r_i_glide_emodel>  (285) 
-27.5331

>  <r_i_glide_energy>  (285) 
-21.7021

>  <r_i_glide_einternal>  (285) 
0.103842

>  <r_i_glide_intrahb_reward>  (285) 
-0

>  <i_i_glide_confnum>  (285) 
1

>  <i_i_glide_posenum>  (285) 
33

>  <r_i_glide_eff_state_penalty>  (285) 
0

>  <ligand_id>  (285) 
99

>  <original_smiles>  (285) 
OC12CC3CC(CC(C3)C1)C2

>  <smiles>  (285) 
[H]OC12C([H])([H])C3([H])C([H])([H])C([H])(C([H])([H])C([H])(C3([H])[H])C1([H])[H])C2([H])[H]

$$$$
99:0:1
     RDKit          3D

 27 29  0  0  1  0  0  0  0  0999 V2000
    2.5675   -4.4244   -0.3199 O   0  0  0  0  0  0  0  0  0  0  0  0
    3.6816   -3.5898   -0.5591 C   0  0  1  0  0  0  0  0  0  0  0  0
    3.6146   -3.0238   -1.9970 C   0  0  0  0  0  0  0  0  0  0  0  0
    4.8484   -2.1332   -2.2477 C   0  0  2  0  0  0  0  0  0  0  0  0
    6.1366   -2.9645   -2.0814 C   0  0  0  0  0  0  0  0  0  0  0  0
    6.2030   -3.5235   -0.6448 C   0  0  1  0  0  0  0  0  0  0  0  0
    6.1971   -2.3681    0.3789 C   0  0  0  0  0  0  0  0  0  0  0  0
    4.9062   -1.5380    0.2077 C   0  0  1  0  0  0  0  0  0  0  0  0
    4.8551   -0.9819   -1.2286 C   0  0  0  0  0  0  0  0  0  0  0  0
    3.6741   -2.4303    0.4565 C   0  0  0  0  0  0  0  0  0  0  0  0
    4.9744   -4.4239   -0.3956 C   0  0  0  0  0  0  0  0  0  0  0  0
    2.5811   -5.0950   -0.9924 H   0  0  0  0  0  0  0  0  0  0  0  0
    3.5879   -3.8309   -2.7304 H   0  0  0  0  0  0  0  0  0  0  0  0
    2.6960   -2.4470   -2.1323 H   0  0  0  0  0  0  0  0  0  0  0  0
    4.7973   -1.7210   -3.2563 H   0  0  0  0  0  0  0  0  0  0  0  0
    6.1559   -3.7737   -2.8147 H   0  0  0  0  0  0  0  0  0  0  0  0
    7.0113   -2.3490   -2.2880 H   0  0  0  0  0  0  0  0  0  0  0  0
    7.1124   -4.1091   -0.5221 H   0  0  0  0  0  0  0  0  0  0  0  0
    6.2608   -2.7640    1.3941 H   0  0  0  0  0  0  0  0  0  0  0  0
    7.0765   -1.7381    0.2413 H   0  0  0  0  0  0  0  0  0  0  0  0
    4.9064   -0.7101    0.9189 H   0  0  0  0  0  0  0  0  0  0  0  0
    5.7150   -0.3351   -1.4017 H   0  0  0  0  0  0  0  0  0  0  0  0
    3.9648   -0.3707   -1.3670 H   0  0  0  0  0  0  0  0  0  0  0  0
    2.7605   -1.8413    0.3521 H   0  0  0  0  0  0  0  0  0  0  0  0
    3.6817   -2.8121    1.4794 H   0  0  0  0  0  0  0  0  0  0  0  0
    5.0212   -4.8612    0.6049 H   0  0  0  0  0  0  0  0  0  0  0  0
    4.9772   -5.2606   -1.0974 H   0  0  0  0  0  0  0  0  0  0  0  0
  2  1  1  1
  1 12  1  0
  2 10  1  0
  2 11  1  0
  2  3  1  0
  3  4  1  0
  3 13  1  0
  3 14  1  0
  4  9  1  0
  4  5  1  0
  4 15  1  6
  5  6  1  0
  5 16  1  0
  5 17  1  0
  6  7  1  0
  6 11  1  0
  6 18  1  6
  7  8  1  0
  7 19  1  0
  7 20  1  0
  8  9  1  0
  8 10  1  0
  8 21  1  1
  9 22  1  0
  9 23  1  0
 10 24  1  0
 10 25  1  0
 11 26  1  0
 11 27  1  0
M  END
>  <i_m_ct_stereo_status>  (286) 
1

>  <s_m_source_file>  (286) 
/var/tmp/pbs.5076255.sched01/tmp7yh4k8o6/114t33l0ocj.sdf

>  <i_m_source_file_index>  (286) 
20

>  <i_lp_mmshare_version>  (286) 
48012

>  <i_f3d_flags>  (286) 
0

>  <s_epik_input>  (286) 
W09IXUMxMltDSDJdW0NAQEhdM1tDSDJdW0NASF0oW0NIMl0yKVtDSDJdW0NAQEhdKFtDSDJdMylbQ0gyXTE=

>  <s_epik_cmdline>  (286) 
J2VwaWtfcHl0aG9uJywgJy1waHQnLCAnMi4wJywgJy1waCcsICc3LjAnLCAnLXRuJywgJzgnLCAnLW1hJywgJzIwMCcsICctaW1hZScsICc8aW5maWxlLm1hZT4nLCAnLW9tYWUnLCAnPG91dGZpbGUubWFlPic=

>  <r_lp_tautomer_probability>  (286) 
1

>  <r_epik_Ionization_Penalty>  (286) 
5.13329e-06

>  <r_epik_Ionization_Penalty_Charging>  (286) 
0

>  <r_epik_Ionization_Penalty_Neutral>  (286) 
5.13329e-06

>  <r_epik_State_Penalty>  (286) 
-0

>  <r_epik_Charging_Adjusted_Penalty>  (286) 
0

>  <i_epik_Tot_Q>  (286) 
0

>  <i_epik_Tot_abs_Q>  (286) 
0

>  <s_lp_Force_Field>  (286) 
OPLS3e

>  <r_lp_Energy>  (286) 
-15.8074

>  <b_lp_Chiralities_Consistent>  (286) 
1

>  <s_lp_Variant>  (286) 
99:0-1

>  <s_i_glide_gridfile>  (286) 
pfpi4k_grid

>  <i_i_glide_lignum>  (286) 
20

>  <i_i_glide_rotatable_bonds>  (286) 
1

>  <r_i_docking_score>  (286) 
-4.16658

>  <r_i_glide_ligand_efficiency>  (286) 
-0.37878

>  <r_i_glide_ligand_efficiency_sa>  (286) 
-0.842399

>  <r_i_glide_ligand_efficiency_ln>  (286) 
-1.22622

>  <r_i_glide_gscore>  (286) 
-4.16658

>  <r_i_glide_lipo>  (286) 
-0.346602

>  <r_i_glide_hbond>  (286) 
-0.32

>  <r_i_glide_metal>  (286) 
-0

>  <r_i_glide_rewards>  (286) 
-2.25

>  <r_i_glide_evdw>  (286) 
-16.0491

>  <r_i_glide_ecoul>  (286) 
-2.98349

>  <r_i_glide_erotb>  (286) 
0

>  <r_i_glide_esite>  (286) 
0

>  <r_i_glide_emodel>  (286) 
-24.5113

>  <r_i_glide_energy>  (286) 
-19.0326

>  <r_i_glide_einternal>  (286) 
0.0213181

>  <r_i_glide_intrahb_reward>  (286) 
-0

>  <i_i_glide_confnum>  (286) 
1

>  <i_i_glide_posenum>  (286) 
12

>  <r_i_glide_eff_state_penalty>  (286) 
0

>  <ligand_id>  (286) 
99

>  <original_smiles>  (286) 
OC12CC3CC(CC(C3)C1)C2

>  <smiles>  (286) 
[H]OC12C([H])([H])C3([H])C([H])([H])C([H])(C([H])([H])C([H])(C3([H])[H])C1([H])[H])C2([H])[H]

$$$$
99:0:2
     RDKit          3D

 27 29  0  0  1  0  0  0  0  0999 V2000
    3.5725   -3.4557   -3.0246 O   0  0  0  0  0  0  0  0  0  0  0  0
    4.0541   -3.0781   -1.7480 C   0  0  1  0  0  0  0  0  0  0  0  0
    4.2832   -1.5530   -1.6960 C   0  0  0  0  0  0  0  0  0  0  0  0
    4.8198   -1.1703   -0.3002 C   0  0  2  0  0  0  0  0  0  0  0  0
    6.1507   -1.9011   -0.0329 C   0  0  0  0  0  0  0  0  0  0  0  0
    5.9195   -3.4264   -0.0914 C   0  0  1  0  0  0  0  0  0  0  0  0
    4.8871   -3.8312    0.9819 C   0  0  0  0  0  0  0  0  0  0  0  0
    3.5551   -3.0951    0.7189 C   0  0  1  0  0  0  0  0  0  0  0  0
    3.7935   -1.5706    0.7774 C   0  0  0  0  0  0  0  0  0  0  0  0
    3.0172   -3.4789   -0.6755 C   0  0  0  0  0  0  0  0  0  0  0  0
    5.3824   -3.8125   -1.4836 C   0  0  0  0  0  0  0  0  0  0  0  0
    3.3529   -4.3799   -2.9870 H   0  0  0  0  0  0  0  0  0  0  0  0
    4.9921   -1.2445   -2.4677 H   0  0  0  0  0  0  0  0  0  0  0  0
    3.3471   -1.0270   -1.9005 H   0  0  0  0  0  0  0  0  0  0  0  0
    4.9734   -0.0921   -0.2486 H   0  0  0  0  0  0  0  0  0  0  0  0
    6.8967   -1.6168   -0.7717 H   0  0  0  0  0  0  0  0  0  0  0  0
    6.5527   -1.6143    0.9398 H   0  0  0  0  0  0  0  0  0  0  0  0
    6.8606   -3.9449    0.0917 H   0  0  0  0  0  0  0  0  0  0  0  0
    4.7306   -4.9117    0.9654 H   0  0  0  0  0  0  0  0  0  0  0  0
    5.2645   -3.5902    1.9761 H   0  0  0  0  0  0  0  0  0  0  0  0
    2.8253   -3.3761    1.4801 H   0  0  0  0  0  0  0  0  0  0  0  0
    4.1568   -1.2868    1.7665 H   0  0  0  0  0  0  0  0  0  0  0  0
    2.8578   -1.0321    0.6216 H   0  0  0  0  0  0  0  0  0  0  0  0
    2.0633   -2.9852   -0.8661 H   0  0  0  0  0  0  0  0  0  0  0  0
    2.8226   -4.5543   -0.7154 H   0  0  0  0  0  0  0  0  0  0  0  0
    5.2270   -4.8921   -1.5331 H   0  0  0  0  0  0  0  0  0  0  0  0
    6.1157   -3.5697   -2.2558 H   0  0  0  0  0  0  0  0  0  0  0  0
  2  1  1  6
  1 12  1  0
  2 10  1  0
  2 11  1  0
  2  3  1  0
  3  4  1  0
  3 13  1  0
  3 14  1  0
  4  9  1  0
  4  5  1  0
  4 15  1  6
  5  6  1  0
  5 16  1  0
  5 17  1  0
  6  7  1  0
  6 11  1  0
  6 18  1  1
  7  8  1  0
  7 19  1  0
  7 20  1  0
  8  9  1  0
  8 10  1  0
  8 21  1  1
  9 22  1  0
  9 23  1  0
 10 24  1  0
 10 25  1  0
 11 26  1  0
 11 27  1  0
M  END
>  <i_m_ct_stereo_status>  (287) 
1

>  <s_m_source_file>  (287) 
/var/tmp/pbs.5076255.sched01/tmp7yh4k8o6/114t33l0ocj.sdf

>  <i_m_source_file_index>  (287) 
20

>  <i_lp_mmshare_version>  (287) 
48012

>  <i_f3d_flags>  (287) 
0

>  <s_epik_input>  (287) 
W09IXUMxMltDSDJdW0NAQEhdM1tDSDJdW0NASF0oW0NIMl0yKVtDSDJdW0NAQEhdKFtDSDJdMylbQ0gyXTE=

>  <s_epik_cmdline>  (287) 
J2VwaWtfcHl0aG9uJywgJy1waHQnLCAnMi4wJywgJy1waCcsICc3LjAnLCAnLXRuJywgJzgnLCAnLW1hJywgJzIwMCcsICctaW1hZScsICc8aW5maWxlLm1hZT4nLCAnLW9tYWUnLCAnPG91dGZpbGUubWFlPic=

>  <r_lp_tautomer_probability>  (287) 
1

>  <r_epik_Ionization_Penalty>  (287) 
5.13329e-06

>  <r_epik_Ionization_Penalty_Charging>  (287) 
0

>  <r_epik_Ionization_Penalty_Neutral>  (287) 
5.13329e-06

>  <r_epik_State_Penalty>  (287) 
-0

>  <r_epik_Charging_Adjusted_Penalty>  (287) 
0

>  <i_epik_Tot_Q>  (287) 
0

>  <i_epik_Tot_abs_Q>  (287) 
0

>  <s_lp_Force_Field>  (287) 
OPLS3e

>  <r_lp_Energy>  (287) 
-15.8074

>  <b_lp_Chiralities_Consistent>  (287) 
1

>  <s_lp_Variant>  (287) 
99:0-1

>  <s_i_glide_gridfile>  (287) 
pfpi4k_grid

>  <i_i_glide_lignum>  (287) 
20

>  <i_i_glide_rotatable_bonds>  (287) 
1

>  <r_i_docking_score>  (287) 
-4.14864

>  <r_i_glide_ligand_efficiency>  (287) 
-0.377149

>  <r_i_glide_ligand_efficiency_sa>  (287) 
-0.838771

>  <r_i_glide_ligand_efficiency_ln>  (287) 
-1.22094

>  <r_i_glide_gscore>  (287) 
-4.14864

>  <r_i_glide_lipo>  (287) 
-0.15782

>  <r_i_glide_hbond>  (287) 
-0.32

>  <r_i_glide_metal>  (287) 
-0

>  <r_i_glide_rewards>  (287) 
-2.25

>  <r_i_glide_evdw>  (287) 
-15.431

>  <r_i_glide_ecoul>  (287) 
-4.32844

>  <r_i_glide_erotb>  (287) 
0

>  <r_i_glide_esite>  (287) 
0

>  <r_i_glide_emodel>  (287) 
-25.203

>  <r_i_glide_energy>  (287) 
-19.7594

>  <r_i_glide_einternal>  (287) 
0.0388503

>  <r_i_glide_intrahb_reward>  (287) 
-0

>  <i_i_glide_confnum>  (287) 
1

>  <i_i_glide_posenum>  (287) 
25

>  <r_i_glide_eff_state_penalty>  (287) 
0

>  <ligand_id>  (287) 
99

>  <original_smiles>  (287) 
OC12CC3CC(CC(C3)C1)C2

>  <smiles>  (287) 
[H]OC12C([H])([H])C3([H])C([H])([H])C([H])(C([H])([H])C([H])(C3([H])[H])C1([H])[H])C2([H])[H]

$$$$
101:1:0
     RDKit          3D

 50 57  0  0  1  0  0  0  0  0999 V2000
    3.8235    0.1544    0.8976 O   0  0  0  0  0  0  0  0  0  0  0  0
    4.4359   -0.9091    0.9058 C   0  0  0  0  0  0  0  0  0  0  0  0
    4.3499   -1.8823   -0.1866 C   0  0  0  0  0  0  0  0  0  0  0  0
    4.8980   -3.0929   -0.1017 C   0  0  0  0  0  0  0  0  0  0  0  0
    4.6101   -3.8156   -1.4152 C   0  0  2  0  0  0  0  0  0  0  0  0
    5.3182   -3.0343   -2.5157 C   0  0  0  0  0  0  0  0  0  0  0  0
    4.7461   -1.8256   -2.5869 C   0  0  0  0  0  0  0  0  0  0  0  0
    3.6518   -1.7538   -1.5343 C   0  0  1  0  0  0  0  0  0  0  0  0
    3.1941   -3.2300   -1.6478 C   0  0  0  0  0  0  0  0  0  0  0  0
    5.7335   -3.6046    1.0583 C   0  0  2  0  0  0  0  0  0  0  0  0
    7.2404   -3.5238    0.7054 C   0  0  0  0  0  0  0  0  0  0  0  0
    7.8020   -2.5000    0.3103 O   0  0  0  0  0  0  0  0  0  0  0  0
    7.8364   -4.7135    0.8420 N   0  0  0  0  0  0  0  0  0  0  0  0
    6.9059   -5.6871    1.1832 C   0  0  0  0  0  0  0  0  0  0  0  0
    7.1090   -7.0622    1.3755 C   0  0  0  0  0  0  0  0  0  0  0  0
    5.9780   -7.8506    1.6798 C   0  0  0  0  0  0  0  0  0  0  0  0
    4.6887   -7.2679    1.7622 C   0  0  0  0  0  0  0  0  0  0  0  0
    4.5111   -5.8839    1.5556 C   0  0  0  0  0  0  0  0  0  0  0  0
    5.6511   -5.1030    1.2859 C   0  0  0  0  0  0  0  0  0  0  0  0
    5.5338   -2.7756    2.2763 N   0  0  0  0  0  0  0  0  0  0  0  0
    5.4055   -1.3153    2.0608 C   0  0  2  0  0  0  0  0  0  0  0  0
    4.9468   -0.8357    3.4408 C   0  0  0  0  0  0  0  0  0  0  0  0
    3.9615   -1.8392    3.8141 N   0  0  0  0  0  0  0  0  0  0  0  0
    3.8187   -1.9824    5.2712 C   0  0  0  0  0  0  0  0  0  0  0  0
    4.6285   -3.2085    5.6471 C   0  0  1  0  0  0  0  0  0  0  0  0
    3.7844   -4.4129    6.0245 C   0  0  0  0  0  0  0  0  0  0  0  0
    3.9988   -5.0255    4.8559 C   0  0  0  0  0  0  0  0  0  0  0  0
    4.9515   -3.9470    4.3593 C   0  0  1  0  0  0  0  0  0  0  0  0
    4.4330   -3.0952    3.1952 C   0  0  2  0  0  0  0  0  0  0  0  0
    4.6891   -4.9019   -1.4359 H   0  0  0  0  0  0  0  0  0  0  0  0
    6.1381   -3.4138   -3.1116 H   0  0  0  0  0  0  0  0  0  0  0  0
    5.0059   -1.0161   -3.2558 H   0  0  0  0  0  0  0  0  0  0  0  0
    2.8842   -0.9934   -1.6684 H   0  0  0  0  0  0  0  0  0  0  0  0
    2.7768   -3.4852   -2.6244 H   0  0  0  0  0  0  0  0  0  0  0  0
    2.4795   -3.5229   -0.8751 H   0  0  0  0  0  0  0  0  0  0  0  0
    8.8062   -4.9155    0.6645 H   0  0  0  0  0  0  0  0  0  0  0  0
    8.0971   -7.4927    1.2848 H   0  0  0  0  0  0  0  0  0  0  0  0
    6.0898   -8.9130    1.8302 H   0  0  0  0  0  0  0  0  0  0  0  0
    3.8334   -7.8874    1.9889 H   0  0  0  0  0  0  0  0  0  0  0  0
    3.5267   -5.4424    1.6210 H   0  0  0  0  0  0  0  0  0  0  0  0
    6.3825   -0.8822    1.8483 H   0  0  0  0  0  0  0  0  0  0  0  0
    5.7964   -0.8495    4.1267 H   0  0  0  0  0  0  0  0  0  0  0  0
    4.5255    0.1705    3.4439 H   0  0  0  0  0  0  0  0  0  0  0  0
    4.1245   -1.0906    5.8179 H   0  0  0  0  0  0  0  0  0  0  0  0
    2.7638   -2.1446    5.4983 H   0  0  0  0  0  0  0  0  0  0  0  0
    5.5166   -3.0176    6.2493 H   0  0  0  0  0  0  0  0  0  0  0  0
    3.2233   -4.6786    6.9140 H   0  0  0  0  0  0  0  0  0  0  0  0
    3.6831   -5.9811    4.4462 H   0  0  0  0  0  0  0  0  0  0  0  0
    6.0005   -4.2365    4.3116 H   0  0  0  0  0  0  0  0  0  0  0  0
    3.5804   -3.5390    2.6844 H   0  0  0  0  0  0  0  0  0  0  0  0
  1  2  2  0
  2 21  1  0
  2  3  1  0
  3  8  1  0
  3  4  2  0
  4  5  1  0
  4 10  1  0
  5  9  1  0
  5  6  1  0
  5 30  1  1
  6  7  2  0
  6 31  1  0
  7  8  1  0
  7 32  1  0
  8  9  1  0
  8 33  1  1
  9 34  1  0
  9 35  1  0
 10 19  1  0
 10 11  1  0
 10 20  1  1
 11 12  2  0
 11 13  1  0
 13 14  1  0
 13 36  1  0
 14 19  2  0
 14 15  1  0
 15 16  2  0
 15 37  1  0
 16 17  1  0
 16 38  1  0
 17 18  2  0
 17 39  1  0
 18 19  1  0
 18 40  1  0
 20 29  1  0
 20 21  1  0
 21 22  1  0
 21 41  1  6
 22 23  1  0
 22 42  1  0
 22 43  1  0
 23 29  1  0
 23 24  1  0
 24 25  1  0
 24 44  1  0
 24 45  1  0
 25 28  1  0
 25 26  1  0
 25 46  1  1
 26 27  2  0
 26 47  1  0
 27 28  1  0
 27 48  1  0
 28 29  1  0
 28 49  1  6
 29 50  1  6
M  END
>  <i_m_ct_stereo_status>  (288) 
1

>  <s_m_source_file>  (288) 
/var/tmp/pbs.5076255.sched01/tmp7yh4k8o6/114t33l0ocj.sdf

>  <i_m_source_file_index>  (288) 
23

>  <i_lp_mmshare_version>  (288) 
48012

>  <i_f3d_flags>  (288) 
0

>  <s_epik_input>  (288) 
W0NIXTE9W0NIXVtDQEBIXTJbQ0BIXTFbQ0gyXU4oW0NIMl0zKVtDQEhdMk40W0NASF0zQyg9TylDKFtDQEhdNVtDSF09W0NIXVtDQEBIXTZbQ0gyXTUpPUM2W0NAXTQ3YzhjKFtOSF1DNz1PKVtjSF1bY0hdW2NIXVtjSF04

>  <s_epik_cmdline>  (288) 
J2VwaWtfcHl0aG9uJywgJy1waHQnLCAnMi4wJywgJy1waCcsICc3LjAnLCAnLXRuJywgJzgnLCAnLW1hJywgJzIwMCcsICctaW1hZScsICc8aW5maWxlLm1hZT4nLCAnLW9tYWUnLCAnPG91dGZpbGUubWFlPic=

>  <r_epik_Ionization_Penalty>  (288) 
1.26974

>  <r_epik_Ionization_Penalty_Charging>  (288) 
0

>  <r_epik_Ionization_Penalty_Neutral>  (288) 
1.26974

>  <r_epik_State_Penalty>  (288) 
1.341

>  <r_epik_Charging_Adjusted_Penalty>  (288) 
1.341

>  <i_epik_Tot_Q>  (288) 
0

>  <i_epik_Tot_abs_Q>  (288) 
0

>  <s_epik_Chemistry_Notes>  (288) 
This compound contains an acetal/aminal-like group ( X-CH(R)-Y where X, Y are N, S, or O) that may be acid/base labile, releasing an aldehyde.

>  <s_lp_Force_Field>  (288) 
OPLS3e

>  <r_lp_Energy>  (288) 
65.5109

>  <b_lp_Chiralities_Consistent>  (288) 
1

>  <s_lp_Variant>  (288) 
101:0-2

>  <s_i_glide_gridfile>  (288) 
pfpi4k_grid

>  <i_i_glide_lignum>  (288) 
23

>  <i_i_glide_rotatable_bonds>  (288) 
0

>  <r_i_docking_score>  (288) 
-3.67329

>  <r_i_glide_ligand_efficiency>  (288) 
-0.126665

>  <r_i_glide_ligand_efficiency_sa>  (288) 
-0.389156

>  <r_i_glide_ligand_efficiency_ln>  (288) 
-0.841091

>  <r_i_glide_gscore>  (288) 
-3.67329

>  <r_i_glide_lipo>  (288) 
-1.03012

>  <r_i_glide_hbond>  (288) 
0

>  <r_i_glide_metal>  (288) 
-0

>  <r_i_glide_rewards>  (288) 
-1.05481

>  <r_i_glide_evdw>  (288) 
-30.8545

>  <r_i_glide_ecoul>  (288) 
-0.304273

>  <r_i_glide_erotb>  (288) 
0

>  <r_i_glide_esite>  (288) 
0

>  <r_i_glide_emodel>  (288) 
-37.8956

>  <r_i_glide_energy>  (288) 
-31.1588

>  <r_i_glide_einternal>  (288) 
0

>  <r_i_glide_intrahb_reward>  (288) 
-0

>  <i_i_glide_confnum>  (288) 
1

>  <i_i_glide_posenum>  (288) 
5

>  <r_i_glide_eff_state_penalty>  (288) 
0

>  <ligand_id>  (288) 
101

>  <original_smiles>  (288) 
O=C1C2=C(C3C=CC2C3)C2(C(=O)Nc3ccccc32)N2C1CN1CC3C=CC3C12

>  <smiles>  (288) 
[H]C1=C([H])C2([H])C3=C(C(=O)C4([H])N(C35C(=O)N([H])c3c([H])c([H])c([H])c([H])c35)C3([H])N(C4([H])[H])C([H])([H])C4([H])C([H])=C([H])C34[H])C1([H])C2([H])[H]

$$$$
101:1:1
     RDKit          3D

 50 57  0  0  1  0  0  0  0  0999 V2000
    1.3159   -4.5372   -1.1196 O   0  0  0  0  0  0  0  0  0  0  0  0
    2.3159   -3.8696   -0.8645 C   0  0  0  0  0  0  0  0  0  0  0  0
    3.2164   -3.3829   -1.8973 C   0  0  0  0  0  0  0  0  0  0  0  0
    4.4074   -2.9001   -1.6016 C   0  0  0  0  0  0  0  0  0  0  0  0
    5.0757   -2.5630   -2.9097 C   0  0  2  0  0  0  0  0  0  0  0  0
    4.2108   -1.4832   -3.5758 C   0  0  0  0  0  0  0  0  0  0  0  0
    3.0237   -2.0109   -3.8712 C   0  0  0  0  0  0  0  0  0  0  0  0
    3.0355   -3.4475   -3.4064 C   0  0  1  0  0  0  0  0  0  0  0  0
    4.5280   -3.7505   -3.7366 C   0  0  0  0  0  0  0  0  0  0  0  0
    4.9433   -2.6715   -0.2018 C   0  0  2  0  0  0  0  0  0  0  0  0
    4.8111   -1.1958    0.1922 C   0  0  0  0  0  0  0  0  0  0  0  0
    3.7490   -0.5989    0.1719 O   0  0  0  0  0  0  0  0  0  0  0  0
    5.9773   -0.6213    0.4929 N   0  0  0  0  0  0  0  0  0  0  0  0
    6.9954   -1.5399    0.3336 C   0  0  0  0  0  0  0  0  0  0  0  0
    8.3792   -1.3935    0.4882 C   0  0  0  0  0  0  0  0  0  0  0  0
    9.2053   -2.5196    0.3065 C   0  0  0  0  0  0  0  0  0  0  0  0
    8.6519   -3.7364   -0.1361 C   0  0  0  0  0  0  0  0  0  0  0  0
    7.2573   -3.8413   -0.3210 C   0  0  0  0  0  0  0  0  0  0  0  0
    6.4420   -2.7306   -0.0700 C   0  0  0  0  0  0  0  0  0  0  0  0
    4.1949   -3.4153    0.8361 N   0  0  0  0  0  0  0  0  0  0  0  0
    2.7318   -3.5163    0.6133 C   0  0  2  0  0  0  0  0  0  0  0  0
    2.3575   -4.5838    1.6537 C   0  0  0  0  0  0  0  0  0  0  0  0
    3.4090   -5.5772    1.5100 N   0  0  0  0  0  0  0  0  0  0  0  0
    3.6160   -6.3499    2.7493 C   0  0  0  0  0  0  0  0  0  0  0  0
    4.8183   -5.7135    3.4029 C   0  0  1  0  0  0  0  0  0  0  0  0
    6.0770   -6.5643    3.3295 C   0  0  0  0  0  0  0  0  0  0  0  0
    6.6181   -5.8242    2.3696 C   0  0  0  0  0  0  0  0  0  0  0  0
    5.4770   -4.8102    2.3747 C   0  0  1  0  0  0  0  0  0  0  0  0
    4.6035   -4.7975    1.1227 C   0  0  2  0  0  0  0  0  0  0  0  0
    6.1542   -2.4469   -2.9187 H   0  0  0  0  0  0  0  0  0  0  0  0
    4.5146   -0.4552   -3.7467 H   0  0  0  0  0  0  0  0  0  0  0  0
    2.1831   -1.5214   -4.3215 H   0  0  0  0  0  0  0  0  0  0  0  0
    2.3090   -4.1354   -3.8433 H   0  0  0  0  0  0  0  0  0  0  0  0
    4.7641   -3.6981   -4.8054 H   0  0  0  0  0  0  0  0  0  0  0  0
    4.8931   -4.7149   -3.3651 H   0  0  0  0  0  0  0  0  0  0  0  0
    6.1261    0.3451    0.7533 H   0  0  0  0  0  0  0  0  0  0  0  0
    8.7920   -0.4591    0.8215 H   0  0  0  0  0  0  0  0  0  0  0  0
   10.2671   -2.3896    0.4701 H   0  0  0  0  0  0  0  0  0  0  0  0
    9.3028   -4.5732   -0.3520 H   0  0  0  0  0  0  0  0  0  0  0  0
    6.7367   -4.6930   -0.6607 H   0  0  0  0  0  0  0  0  0  0  0  0
    2.2543   -2.5670    0.8879 H   0  0  0  0  0  0  0  0  0  0  0  0
    2.3717   -4.1254    2.6485 H   0  0  0  0  0  0  0  0  0  0  0  0
    1.3909   -5.0520    1.5037 H   0  0  0  0  0  0  0  0  0  0  0  0
    2.7437   -6.3624    3.3987 H   0  0  0  0  0  0  0  0  0  0  0  0
    3.8353   -7.3791    2.4767 H   0  0  0  0  0  0  0  0  0  0  0  0
    4.6472   -5.1965    4.3511 H   0  0  0  0  0  0  0  0  0  0  0  0
    6.4169   -7.4456    3.8675 H   0  0  0  0  0  0  0  0  0  0  0  0
    7.5675   -5.8768    1.8421 H   0  0  0  0  0  0  0  0  0  0  0  0
    5.7286   -3.8339    2.8108 H   0  0  0  0  0  0  0  0  0  0  0  0
    5.0402   -5.3241    0.2787 H   0  0  0  0  0  0  0  0  0  0  0  0
  1  2  2  0
  2 21  1  0
  2  3  1  0
  3  8  1  0
  3  4  2  0
  4  5  1  0
  4 10  1  0
  5  9  1  0
  5  6  1  0
  5 30  1  1
  6  7  2  0
  6 31  1  0
  7  8  1  0
  7 32  1  0
  8  9  1  0
  8 33  1  1
  9 34  1  0
  9 35  1  0
 10 19  1  0
 10 11  1  0
 10 20  1  1
 11 12  2  0
 11 13  1  0
 13 14  1  0
 13 36  1  0
 14 19  2  0
 14 15  1  0
 15 16  2  0
 15 37  1  0
 16 17  1  0
 16 38  1  0
 17 18  2  0
 17 39  1  0
 18 19  1  0
 18 40  1  0
 20 29  1  0
 20 21  1  0
 21 22  1  0
 21 41  1  1
 22 23  1  0
 22 42  1  0
 22 43  1  0
 23 29  1  0
 23 24  1  0
 24 25  1  0
 24 44  1  0
 24 45  1  0
 25 28  1  0
 25 26  1  0
 25 46  1  1
 26 27  2  0
 26 47  1  0
 27 28  1  0
 27 48  1  0
 28 29  1  0
 28 49  1  1
 29 50  1  6
M  END
>  <i_m_ct_stereo_status>  (289) 
1

>  <s_m_source_file>  (289) 
/var/tmp/pbs.5076255.sched01/tmp7yh4k8o6/114t33l0ocj.sdf

>  <i_m_source_file_index>  (289) 
23

>  <i_lp_mmshare_version>  (289) 
48012

>  <i_f3d_flags>  (289) 
0

>  <s_epik_input>  (289) 
W0NIXTE9W0NIXVtDQEBIXTJbQ0BIXTFbQ0gyXU4oW0NIMl0zKVtDQEhdMk40W0NASF0zQyg9TylDKFtDQEhdNVtDSF09W0NIXVtDQEBIXTZbQ0gyXTUpPUM2W0NAXTQ3YzhjKFtOSF1DNz1PKVtjSF1bY0hdW2NIXVtjSF04

>  <s_epik_cmdline>  (289) 
J2VwaWtfcHl0aG9uJywgJy1waHQnLCAnMi4wJywgJy1waCcsICc3LjAnLCAnLXRuJywgJzgnLCAnLW1hJywgJzIwMCcsICctaW1hZScsICc8aW5maWxlLm1hZT4nLCAnLW9tYWUnLCAnPG91dGZpbGUubWFlPic=

>  <r_epik_Ionization_Penalty>  (289) 
1.26974

>  <r_epik_Ionization_Penalty_Charging>  (289) 
0

>  <r_epik_Ionization_Penalty_Neutral>  (289) 
1.26974

>  <r_epik_State_Penalty>  (289) 
1.341

>  <r_epik_Charging_Adjusted_Penalty>  (289) 
1.341

>  <i_epik_Tot_Q>  (289) 
0

>  <i_epik_Tot_abs_Q>  (289) 
0

>  <s_epik_Chemistry_Notes>  (289) 
This compound contains an acetal/aminal-like group ( X-CH(R)-Y where X, Y are N, S, or O) that may be acid/base labile, releasing an aldehyde.

>  <s_lp_Force_Field>  (289) 
OPLS3e

>  <r_lp_Energy>  (289) 
65.5109

>  <b_lp_Chiralities_Consistent>  (289) 
1

>  <s_lp_Variant>  (289) 
101:0-2

>  <s_i_glide_gridfile>  (289) 
pfpi4k_grid

>  <i_i_glide_lignum>  (289) 
23

>  <i_i_glide_rotatable_bonds>  (289) 
0

>  <r_i_docking_score>  (289) 
-3.17874

>  <r_i_glide_ligand_efficiency>  (289) 
-0.109612

>  <r_i_glide_ligand_efficiency_sa>  (289) 
-0.336762

>  <r_i_glide_ligand_efficiency_ln>  (289) 
-0.727851

>  <r_i_glide_gscore>  (289) 
-3.17874

>  <r_i_glide_lipo>  (289) 
-0.889775

>  <r_i_glide_hbond>  (289) 
-0.0842737

>  <r_i_glide_metal>  (289) 
-0

>  <r_i_glide_rewards>  (289) 
-0.862546

>  <r_i_glide_evdw>  (289) 
-24.1799

>  <r_i_glide_ecoul>  (289) 
-0.576255

>  <r_i_glide_erotb>  (289) 
0

>  <r_i_glide_esite>  (289) 
-0.0467148

>  <r_i_glide_emodel>  (289) 
-30.1921

>  <r_i_glide_energy>  (289) 
-24.7561

>  <r_i_glide_einternal>  (289) 
0

>  <r_i_glide_intrahb_reward>  (289) 
-0

>  <i_i_glide_confnum>  (289) 
1

>  <i_i_glide_posenum>  (289) 
21

>  <r_i_glide_eff_state_penalty>  (289) 
0

>  <ligand_id>  (289) 
101

>  <original_smiles>  (289) 
O=C1C2=C(C3C=CC2C3)C2(C(=O)Nc3ccccc32)N2C1CN1CC3C=CC3C12

>  <smiles>  (289) 
[H]C1=C([H])C2([H])C3=C(C(=O)C4([H])N(C35C(=O)N([H])c3c([H])c([H])c([H])c([H])c35)C3([H])N(C4([H])[H])C([H])([H])C4([H])C([H])=C([H])C34[H])C1([H])C2([H])[H]

$$$$
101:1:2
     RDKit          3D

 50 57  0  0  1  0  0  0  0  0999 V2000
    3.7091    0.9448    4.0964 O   0  0  0  0  0  0  0  0  0  0  0  0
    3.3074    2.0802    4.3441 C   0  0  0  0  0  0  0  0  0  0  0  0
    3.7030    2.8131    5.5530 C   0  0  0  0  0  0  0  0  0  0  0  0
    3.1591    3.9851    5.8852 C   0  0  0  0  0  0  0  0  0  0  0  0
    3.8225    4.4345    7.1873 C   0  0  2  0  0  0  0  0  0  0  0  0
    5.2973    4.6565    6.8738 C   0  0  0  0  0  0  0  0  0  0  0  0
    5.8292    3.4745    6.5418 C   0  0  0  0  0  0  0  0  0  0  0  0
    4.7251    2.4228    6.6137 C   0  0  1  0  0  0  0  0  0  0  0  0
    3.9760    3.0335    7.8263 C   0  0  0  0  0  0  0  0  0  0  0  0
    2.1349    4.7533    5.0623 C   0  0  2  0  0  0  0  0  0  0  0  0
    2.8115    5.9109    4.2782 C   0  0  0  0  0  0  0  0  0  0  0  0
    3.7848    5.7662    3.5337 O   0  0  0  0  0  0  0  0  0  0  0  0
    2.2461    7.0841    4.5611 N   0  0  0  0  0  0  0  0  0  0  0  0
    1.2625    6.9345    5.5327 C   0  0  0  0  0  0  0  0  0  0  0  0
    0.4691    7.9243    6.1300 C   0  0  0  0  0  0  0  0  0  0  0  0
   -0.4430    7.5120    7.1266 C   0  0  0  0  0  0  0  0  0  0  0  0
   -0.5277    6.1535    7.5118 C   0  0  0  0  0  0  0  0  0  0  0  0
    0.2905    5.1776    6.9006 C   0  0  0  0  0  0  0  0  0  0  0  0
    1.1745    5.5987    5.8842 C   0  0  0  0  0  0  0  0  0  0  0  0
    1.4922    3.8720    4.0533 N   0  0  0  0  0  0  0  0  0  0  0  0
    2.3715    2.8849    3.3850 C   0  0  2  0  0  0  0  0  0  0  0  0
    1.3580    2.0056    2.6527 C   0  0  0  0  0  0  0  0  0  0  0  0
    0.3158    1.8254    3.6495 N   0  0  0  0  0  0  0  0  0  0  0  0
   -0.9967    1.5766    3.0362 C   0  0  0  0  0  0  0  0  0  0  0  0
   -1.7276    2.9041    3.0745 C   0  0  1  0  0  0  0  0  0  0  0  0
   -2.8442    2.9529    4.0858 C   0  0  0  0  0  0  0  0  0  0  0  0
   -2.1386    3.6810    4.9524 C   0  0  0  0  0  0  0  0  0  0  0  0
   -0.9590    3.8221    4.0022 C   0  0  1  0  0  0  0  0  0  0  0  0
    0.3122    3.0822    4.4249 C   0  0  2  0  0  0  0  0  0  0  0  0
    3.3172    5.1860    7.7896 H   0  0  0  0  0  0  0  0  0  0  0  0
    5.8000    5.6153    6.9150 H   0  0  0  0  0  0  0  0  0  0  0  0
    6.8570    3.2819    6.2578 H   0  0  0  0  0  0  0  0  0  0  0  0
    5.0318    1.3800    6.6994 H   0  0  0  0  0  0  0  0  0  0  0  0
    4.5643    3.0429    8.7505 H   0  0  0  0  0  0  0  0  0  0  0  0
    3.0157    2.5506    8.0292 H   0  0  0  0  0  0  0  0  0  0  0  0
    2.5179    7.9805    4.1748 H   0  0  0  0  0  0  0  0  0  0  0  0
    0.5629    8.9575    5.8281 H   0  0  0  0  0  0  0  0  0  0  0  0
   -1.0738    8.2436    7.6065 H   0  0  0  0  0  0  0  0  0  0  0  0
   -1.2281    5.8506    8.2785 H   0  0  0  0  0  0  0  0  0  0  0  0
    0.2255    4.1412    7.1990 H   0  0  0  0  0  0  0  0  0  0  0  0
    2.9971    3.3859    2.6455 H   0  0  0  0  0  0  0  0  0  0  0  0
    0.9777    2.5426    1.7797 H   0  0  0  0  0  0  0  0  0  0  0  0
    1.7619    1.0521    2.3087 H   0  0  0  0  0  0  0  0  0  0  0  0
   -0.9336    1.1606    2.0322 H   0  0  0  0  0  0  0  0  0  0  0  0
   -1.5285    0.8455    3.6482 H   0  0  0  0  0  0  0  0  0  0  0  0
   -1.9260    3.3609    2.1046 H   0  0  0  0  0  0  0  0  0  0  0  0
   -3.8500    2.5472    4.0709 H   0  0  0  0  0  0  0  0  0  0  0  0
   -2.3486    4.1067    5.9315 H   0  0  0  0  0  0  0  0  0  0  0  0
   -0.8123    4.8025    3.5467 H   0  0  0  0  0  0  0  0  0  0  0  0
    0.3161    2.8123    5.4784 H   0  0  0  0  0  0  0  0  0  0  0  0
  1  2  2  0
  2 21  1  0
  2  3  1  0
  3  8  1  0
  3  4  2  0
  4  5  1  0
  4 10  1  0
  5  9  1  0
  5  6  1  0
  5 30  1  1
  6  7  2  0
  6 31  1  0
  7  8  1  0
  7 32  1  0
  8  9  1  0
  8 33  1  1
  9 34  1  0
  9 35  1  0
 10 19  1  0
 10 11  1  0
 10 20  1  6
 11 12  2  0
 11 13  1  0
 13 14  1  0
 13 36  1  0
 14 19  2  0
 14 15  1  0
 15 16  2  0
 15 37  1  0
 16 17  1  0
 16 38  1  0
 17 18  2  0
 17 39  1  0
 18 19  1  0
 18 40  1  0
 20 29  1  0
 20 21  1  0
 21 22  1  0
 21 41  1  6
 22 23  1  0
 22 42  1  0
 22 43  1  0
 23 29  1  0
 23 24  1  0
 24 25  1  0
 24 44  1  0
 24 45  1  0
 25 28  1  0
 25 26  1  0
 25 46  1  6
 26 27  2  0
 26 47  1  0
 27 28  1  0
 27 48  1  0
 28 29  1  0
 28 49  1  6
 29 50  1  1
M  END
>  <i_m_ct_stereo_status>  (290) 
1

>  <s_m_source_file>  (290) 
/var/tmp/pbs.5076255.sched01/tmp7yh4k8o6/114t33l0ocj.sdf

>  <i_m_source_file_index>  (290) 
23

>  <i_lp_mmshare_version>  (290) 
48012

>  <i_f3d_flags>  (290) 
0

>  <s_epik_input>  (290) 
W0NIXTE9W0NIXVtDQEBIXTJbQ0BIXTFbQ0gyXU4oW0NIMl0zKVtDQEhdMk40W0NASF0zQyg9TylDKFtDQEhdNVtDSF09W0NIXVtDQEBIXTZbQ0gyXTUpPUM2W0NAXTQ3YzhjKFtOSF1DNz1PKVtjSF1bY0hdW2NIXVtjSF04

>  <s_epik_cmdline>  (290) 
J2VwaWtfcHl0aG9uJywgJy1waHQnLCAnMi4wJywgJy1waCcsICc3LjAnLCAnLXRuJywgJzgnLCAnLW1hJywgJzIwMCcsICctaW1hZScsICc8aW5maWxlLm1hZT4nLCAnLW9tYWUnLCAnPG91dGZpbGUubWFlPic=

>  <r_epik_Ionization_Penalty>  (290) 
1.26974

>  <r_epik_Ionization_Penalty_Charging>  (290) 
0

>  <r_epik_Ionization_Penalty_Neutral>  (290) 
1.26974

>  <r_epik_State_Penalty>  (290) 
1.341

>  <r_epik_Charging_Adjusted_Penalty>  (290) 
1.341

>  <i_epik_Tot_Q>  (290) 
0

>  <i_epik_Tot_abs_Q>  (290) 
0

>  <s_epik_Chemistry_Notes>  (290) 
This compound contains an acetal/aminal-like group ( X-CH(R)-Y where X, Y are N, S, or O) that may be acid/base labile, releasing an aldehyde.

>  <s_lp_Force_Field>  (290) 
OPLS3e

>  <r_lp_Energy>  (290) 
65.5109

>  <b_lp_Chiralities_Consistent>  (290) 
1

>  <s_lp_Variant>  (290) 
101:0-2

>  <s_i_glide_gridfile>  (290) 
pfpi4k_grid

>  <i_i_glide_lignum>  (290) 
23

>  <i_i_glide_rotatable_bonds>  (290) 
0

>  <r_i_docking_score>  (290) 
-2.2618

>  <r_i_glide_ligand_efficiency>  (290) 
-0.077993

>  <r_i_glide_ligand_efficiency_sa>  (290) 
-0.239619

>  <r_i_glide_ligand_efficiency_ln>  (290) 
-0.517894

>  <r_i_glide_gscore>  (290) 
-2.2618

>  <r_i_glide_lipo>  (290) 
-0.0341632

>  <r_i_glide_hbond>  (290) 
0

>  <r_i_glide_metal>  (290) 
-0

>  <r_i_glide_rewards>  (290) 
-0.794711

>  <r_i_glide_evdw>  (290) 
-24.861

>  <r_i_glide_ecoul>  (290) 
-0.805224

>  <r_i_glide_erotb>  (290) 
0

>  <r_i_glide_esite>  (290) 
-0.0690905

>  <r_i_glide_emodel>  (290) 
-29.716

>  <r_i_glide_energy>  (290) 
-25.6662

>  <r_i_glide_einternal>  (290) 
0

>  <r_i_glide_intrahb_reward>  (290) 
-0

>  <i_i_glide_confnum>  (290) 
1

>  <i_i_glide_posenum>  (290) 
10

>  <r_i_glide_eff_state_penalty>  (290) 
0

>  <ligand_id>  (290) 
101

>  <original_smiles>  (290) 
O=C1C2=C(C3C=CC2C3)C2(C(=O)Nc3ccccc32)N2C1CN1CC3C=CC3C12

>  <smiles>  (290) 
[H]C1=C([H])C2([H])C3=C(C(=O)C4([H])N(C35C(=O)N([H])c3c([H])c([H])c([H])c([H])c35)C3([H])N(C4([H])[H])C([H])([H])C4([H])C([H])=C([H])C34[H])C1([H])C2([H])[H]

$$$$
102:0:0
     RDKit          3D

 49 54  0  0  1  0  0  0  0  0999 V2000
    5.5673   -7.0946    1.3539 C   0  0  0  0  0  0  0  0  0  0  0  0
    5.0895   -6.0465    0.3292 C   0  0  0  0  0  0  0  0  0  0  0  0
    4.2593   -4.8389    0.8442 C   0  0  1  0  0  0  0  0  0  0  0  0
    3.6183   -3.9033   -0.1817 C   0  0  1  0  0  0  0  0  0  0  0  0
    2.3612   -4.2565   -0.7199 O   0  0  0  0  0  0  0  0  0  0  0  0
    3.5422   -2.9634    1.0219 C   0  0  1  0  0  0  0  0  0  0  0  0
    3.3205   -1.4678    0.9567 C   0  0  0  0  0  0  0  0  0  0  0  0
    3.3931   -1.0516   -0.3778 O   0  0  0  0  0  0  0  0  0  0  0  0
    2.7171   -3.6482    1.9430 O   0  0  0  0  0  0  0  0  0  0  0  0
    3.5161   -4.7955    2.1700 C   0  0  1  0  0  0  0  0  0  0  0  0
    2.7933   -5.8655    2.9162 C   0  0  0  0  0  0  0  0  0  0  0  0
    2.0021   -6.7718    2.2047 C   0  0  0  0  0  0  0  0  0  0  0  0
    1.2913   -7.7394    2.9280 C   0  0  0  0  0  0  0  0  0  0  0  0
    0.4522   -8.7325    2.4897 N   0  0  0  0  0  0  0  0  0  0  0  0
   -0.0131   -9.4525    3.5702 C   0  0  0  0  0  0  0  0  0  0  0  0
    0.5011   -8.9400    4.7375 C   0  0  0  0  0  0  0  0  0  0  0  0
    0.1545   -9.4986    6.0435 C   0  0  0  0  0  0  0  0  0  0  0  0
    0.1076   -8.9161    7.1275 O   0  0  0  0  0  0  0  0  0  0  0  0
    1.3601   -7.8297    4.3512 C   0  0  0  0  0  0  0  0  0  0  0  0
    2.1920   -6.8978    5.0373 C   0  0  0  0  0  0  0  0  0  0  0  0
    2.3260   -6.9827    6.5465 C   0  0  0  0  0  0  0  0  0  0  0  0
    2.9023   -5.8906    4.3217 C   0  0  0  0  0  0  0  0  0  0  0  0
    3.7868   -4.8583    5.0665 C   0  0  0  0  0  0  0  0  0  0  0  0
    4.4006   -3.7151    4.2086 C   0  0  0  0  0  0  0  0  0  0  0  0
    4.7601   -4.2702    2.8488 C   0  0  2  0  0  0  0  0  0  0  0  0
    4.8480   -3.5636    1.5031 C   0  0  1  0  0  0  0  0  0  0  0  0
    0.2257   -8.9630    1.5248 H   0  0  0  0  0  0  0  0  0  0  0  0
    6.0205   -7.9613    0.8716 H   0  0  0  0  0  0  0  0  0  0  0  0
    4.7435   -7.4789    1.9560 H   0  0  0  0  0  0  0  0  0  0  0  0
    6.3419   -6.7071    2.0173 H   0  0  0  0  0  0  0  0  0  0  0  0
    5.9584   -5.6864   -0.2179 H   0  0  0  0  0  0  0  0  0  0  0  0
    4.4954   -6.5720   -0.4150 H   0  0  0  0  0  0  0  0  0  0  0  0
    4.3061   -3.5632   -0.9657 H   0  0  0  0  0  0  0  0  0  0  0  0
    2.5227   -4.7807   -1.5016 H   0  0  0  0  0  0  0  0  0  0  0  0
    2.3419   -1.2068    1.3653 H   0  0  0  0  0  0  0  0  0  0  0  0
    4.0658   -0.9498    1.5649 H   0  0  0  0  0  0  0  0  0  0  0  0
    2.4833   -1.0848   -0.6992 H   0  0  0  0  0  0  0  0  0  0  0  0
    1.9510   -6.7298    1.1323 H   0  0  0  0  0  0  0  0  0  0  0  0
   -0.6975  -10.2563    3.3895 H   0  0  0  0  0  0  0  0  0  0  0  0
   -0.1239  -10.5466    5.9821 H   0  0  0  0  0  0  0  0  0  0  0  0
    3.0787   -6.3289    6.9799 H   0  0  0  0  0  0  0  0  0  0  0  0
    2.5925   -7.9983    6.8430 H   0  0  0  0  0  0  0  0  0  0  0  0
    1.3857   -6.6889    7.0119 H   0  0  0  0  0  0  0  0  0  0  0  0
    3.2135   -4.4115    5.8736 H   0  0  0  0  0  0  0  0  0  0  0  0
    4.6044   -5.4228    5.5223 H   0  0  0  0  0  0  0  0  0  0  0  0
    3.6590   -2.9290    4.0947 H   0  0  0  0  0  0  0  0  0  0  0  0
    5.2565   -3.2647    4.7200 H   0  0  0  0  0  0  0  0  0  0  0  0
    5.5561   -4.9939    2.9508 H   0  0  0  0  0  0  0  0  0  0  0  0
    5.8025   -3.2480    1.0810 H   0  0  0  0  0  0  0  0  0  0  0  0
  1  2  1  0
  1 28  1  0
  1 29  1  0
  1 30  1  0
  3  2  1  6
  2 31  1  0
  2 32  1  0
  3 10  1  0
  3 26  1  0
  3  4  1  0
  4  5  1  0
  4  6  1  0
  4 33  1  6
  5 34  1  0
  6 26  1  0
  6  7  1  6
  6  9  1  0
  7  8  1  0
  7 35  1  0
  7 36  1  0
  8 37  1  0
  9 10  1  0
 10 25  1  0
 10 11  1  1
 11 22  2  0
 11 12  1  0
 12 13  2  0
 12 38  1  0
 13 19  1  0
 13 14  1  0
 14 27  1  0
 14 15  1  0
 15 16  2  0
 15 39  1  0
 16 17  1  0
 16 19  1  0
 17 18  2  0
 17 40  1  0
 19 20  2  0
 20 21  1  0
 20 22  1  0
 21 41  1  0
 21 42  1  0
 21 43  1  0
 22 23  1  0
 23 24  1  0
 23 44  1  0
 23 45  1  0
 24 25  1  0
 24 46  1  0
 24 47  1  0
 25 26  1  0
 25 48  1  1
 26 49  1  6
M  END
>  <i_m_ct_stereo_status>  (291) 
1

>  <s_m_source_file>  (291) 
/var/tmp/pbs.5076255.sched01/tmp7yh4k8o6/114t33l0ocj.sdf

>  <i_m_source_file_index>  (291) 
24

>  <i_lp_mmshare_version>  (291) 
48012

>  <i_f3d_flags>  (291) 
0

>  <s_epik_input>  (291) 
W0NIM11bQ0gyXVtDQEBdMShbQ0BAXTIzNClbQ0BASF0oW0NAXShPMikoW0NAQEhdMVtPSF0pW0NIMl1bT0hdKVtDQEhdNFtDSDJdW0NIMl1jNWMzW2NIXWM2YyhjNVtDSDNdKWMoW0NIXT1PKVtjSF1bbkhdNg==

>  <s_epik_cmdline>  (291) 
J2VwaWtfcHl0aG9uJywgJy1waHQnLCAnMi4wJywgJy1waCcsICc3LjAnLCAnLXRuJywgJzgnLCAnLW1hJywgJzIwMCcsICctaW1hZScsICc8aW5maWxlLm1hZT4nLCAnLW9tYWUnLCAnPG91dGZpbGUubWFlPic=

>  <r_lp_tautomer_probability>  (291) 
1

>  <r_epik_Ionization_Penalty>  (291) 
1.27902e-07

>  <r_epik_Ionization_Penalty_Charging>  (291) 
0

>  <r_epik_Ionization_Penalty_Neutral>  (291) 
1.27902e-07

>  <r_epik_State_Penalty>  (291) 
-0

>  <r_epik_Charging_Adjusted_Penalty>  (291) 
0

>  <i_epik_Tot_Q>  (291) 
0

>  <i_epik_Tot_abs_Q>  (291) 
0

>  <s_lp_Force_Field>  (291) 
OPLS3e

>  <r_lp_Energy>  (291) 
76.9171

>  <b_lp_Chiralities_Consistent>  (291) 
1

>  <s_lp_Variant>  (291) 
102:0-1

>  <s_i_glide_gridfile>  (291) 
pfpi4k_grid

>  <i_i_glide_lignum>  (291) 
24

>  <i_i_glide_rotatable_bonds>  (291) 
5

>  <r_i_docking_score>  (291) 
-4.14939

>  <r_i_glide_ligand_efficiency>  (291) 
-0.159592

>  <r_i_glide_ligand_efficiency_sa>  (291) 
-0.47279

>  <r_i_glide_ligand_efficiency_ln>  (291) 
-0.97447

>  <r_i_glide_gscore>  (291) 
-4.14939

>  <r_i_glide_lipo>  (291) 
-0.319797

>  <r_i_glide_hbond>  (291) 
-0.288

>  <r_i_glide_metal>  (291) 
-0

>  <r_i_glide_rewards>  (291) 
-0.999466

>  <r_i_glide_evdw>  (291) 
-17.3343

>  <r_i_glide_ecoul>  (291) 
-11.5392

>  <r_i_glide_erotb>  (291) 
0.152895

>  <r_i_glide_esite>  (291) 
-0.0974204

>  <r_i_glide_emodel>  (291) 
-34.4949

>  <r_i_glide_energy>  (291) 
-28.8735

>  <r_i_glide_einternal>  (291) 
5.41195

>  <r_i_glide_intrahb_reward>  (291) 
-0

>  <i_i_glide_confnum>  (291) 
6

>  <i_i_glide_posenum>  (291) 
35

>  <r_i_glide_eff_state_penalty>  (291) 
0

>  <ligand_id>  (291) 
102

>  <original_smiles>  (291) 
CCC12C(O)C3(CO)OC14c1cc5[nH]cc(C=O)c5c(C)c1CCC4C32

>  <smiles>  (291) 
[H]OC([H])([H])C12OC34c5c(c(C([H])([H])[H])c6c(C([H])=O)c([H])n([H])c6c5[H])C([H])([H])C([H])([H])C3([H])C1([H])C4(C([H])([H])C([H])([H])[H])C2([H])O[H]

$$$$
102:0:1
     RDKit          3D

 49 54  0  0  1  0  0  0  0  0999 V2000
    3.1277    3.7018    6.4306 C   0  0  0  0  0  0  0  0  0  0  0  0
    2.9578    2.4004    5.6317 C   0  0  0  0  0  0  0  0  0  0  0  0
    1.6752    2.3362    4.7703 C   0  0  1  0  0  0  0  0  0  0  0  0
    1.0902    3.6134    4.1453 C   0  0  1  0  0  0  0  0  0  0  0  0
    1.6842    4.0658    2.9230 O   0  0  0  0  0  0  0  0  0  0  0  0
   -0.1612    2.7150    4.0323 C   0  0  1  0  0  0  0  0  0  0  0  0
   -1.5802    3.2093    3.8303 C   0  0  0  0  0  0  0  0  0  0  0  0
   -1.5856    4.5030    3.2717 O   0  0  0  0  0  0  0  0  0  0  0  0
    0.2290    1.6531    3.1899 O   0  0  0  0  0  0  0  0  0  0  0  0
    1.2593    1.0956    3.9859 C   0  0  1  0  0  0  0  0  0  0  0  0
    2.0830    0.0647    3.2544 C   0  0  0  0  0  0  0  0  0  0  0  0
    3.1538    0.4943    2.4790 C   0  0  0  0  0  0  0  0  0  0  0  0
    3.8724   -0.4447    1.7248 C   0  0  0  0  0  0  0  0  0  0  0  0
    4.9483   -0.2887    0.8720 N   0  0  0  0  0  0  0  0  0  0  0  0
    5.3285   -1.5086    0.3653 C   0  0  0  0  0  0  0  0  0  0  0  0
    4.5032   -2.4884    0.8456 C   0  0  0  0  0  0  0  0  0  0  0  0
    4.6442   -3.8743    0.4561 C   0  0  0  0  0  0  0  0  0  0  0  0
    5.5196   -4.3360   -0.2920 O   0  0  0  0  0  0  0  0  0  0  0  0
    3.5535   -1.8339    1.7387 C   0  0  0  0  0  0  0  0  0  0  0  0
    2.4641   -2.2493    2.5581 C   0  0  0  0  0  0  0  0  0  0  0  0
    2.1235   -3.7254    2.6309 C   0  0  0  0  0  0  0  0  0  0  0  0
    1.6980   -1.2937    3.3110 C   0  0  0  0  0  0  0  0  0  0  0  0
    0.4885   -1.7281    4.1722 C   0  0  0  0  0  0  0  0  0  0  0  0
   -0.3399   -0.5846    4.8329 C   0  0  0  0  0  0  0  0  0  0  0  0
    0.5885    0.5600    5.2241 C   0  0  2  0  0  0  0  0  0  0  0  0
    0.2696    2.0539    5.3320 C   0  0  1  0  0  0  0  0  0  0  0  0
    5.3598    0.5877    0.5954 H   0  0  0  0  0  0  0  0  0  0  0  0
    4.0026    3.6517    7.0811 H   0  0  0  0  0  0  0  0  0  0  0  0
    2.2594    3.8935    7.0634 H   0  0  0  0  0  0  0  0  0  0  0  0
    3.2649    4.5659    5.7764 H   0  0  0  0  0  0  0  0  0  0  0  0
    3.8066    2.3080    4.9641 H   0  0  0  0  0  0  0  0  0  0  0  0
    3.0465    1.5570    6.3219 H   0  0  0  0  0  0  0  0  0  0  0  0
    0.9504    4.4318    4.8604 H   0  0  0  0  0  0  0  0  0  0  0  0
    0.9908    4.1231    2.2591 H   0  0  0  0  0  0  0  0  0  0  0  0
   -2.1350    2.5129    3.1917 H   0  0  0  0  0  0  0  0  0  0  0  0
   -2.1133    3.2427    4.7850 H   0  0  0  0  0  0  0  0  0  0  0  0
   -1.1120    4.4474    2.4381 H   0  0  0  0  0  0  0  0  0  0  0  0
    3.3974    1.5416    2.4510 H   0  0  0  0  0  0  0  0  0  0  0  0
    6.1602   -1.6190   -0.3307 H   0  0  0  0  0  0  0  0  0  0  0  0
    3.8899   -4.5127    0.8896 H   0  0  0  0  0  0  0  0  0  0  0  0
    1.3287   -3.9693    3.3344 H   0  0  0  0  0  0  0  0  0  0  0  0
    2.9988   -4.2995    2.9351 H   0  0  0  0  0  0  0  0  0  0  0  0
    1.8221   -4.0779    1.6464 H   0  0  0  0  0  0  0  0  0  0  0  0
   -0.1800   -2.3445    3.5792 H   0  0  0  0  0  0  0  0  0  0  0  0
    0.8787   -2.3581    4.9706 H   0  0  0  0  0  0  0  0  0  0  0  0
   -1.0605   -0.2227    4.0977 H   0  0  0  0  0  0  0  0  0  0  0  0
   -0.9431   -0.9687    5.6621 H   0  0  0  0  0  0  0  0  0  0  0  0
    1.3149    0.2638    5.9820 H   0  0  0  0  0  0  0  0  0  0  0  0
    0.0952    2.5210    6.3081 H   0  0  0  0  0  0  0  0  0  0  0  0
  1  2  1  0
  1 28  1  0
  1 29  1  0
  1 30  1  0
  3  2  1  1
  2 31  1  0
  2 32  1  0
  3 10  1  0
  3 26  1  0
  3  4  1  0
  4  5  1  0
  4  6  1  0
  4 33  1  1
  5 34  1  0
  6 26  1  0
  6  7  1  1
  6  9  1  0
  7  8  1  0
  7 35  1  0
  7 36  1  0
  8 37  1  0
  9 10  1  0
 10 25  1  0
 10 11  1  6
 11 22  2  0
 11 12  1  0
 12 13  2  0
 12 38  1  0
 13 19  1  0
 13 14  1  0
 14 27  1  0
 14 15  1  0
 15 16  2  0
 15 39  1  0
 16 17  1  0
 16 19  1  0
 17 18  2  0
 17 40  1  0
 19 20  2  0
 20 21  1  0
 20 22  1  0
 21 41  1  0
 21 42  1  0
 21 43  1  0
 22 23  1  0
 23 24  1  0
 23 44  1  0
 23 45  1  0
 24 25  1  0
 24 46  1  0
 24 47  1  0
 25 26  1  0
 25 48  1  1
 26 49  1  1
M  END
>  <i_m_ct_stereo_status>  (292) 
1

>  <s_m_source_file>  (292) 
/var/tmp/pbs.5076255.sched01/tmp7yh4k8o6/114t33l0ocj.sdf

>  <i_m_source_file_index>  (292) 
24

>  <i_lp_mmshare_version>  (292) 
48012

>  <i_f3d_flags>  (292) 
0

>  <s_epik_input>  (292) 
W0NIM11bQ0gyXVtDQEBdMShbQ0BAXTIzNClbQ0BASF0oW0NAXShPMikoW0NAQEhdMVtPSF0pW0NIMl1bT0hdKVtDQEhdNFtDSDJdW0NIMl1jNWMzW2NIXWM2YyhjNVtDSDNdKWMoW0NIXT1PKVtjSF1bbkhdNg==

>  <s_epik_cmdline>  (292) 
J2VwaWtfcHl0aG9uJywgJy1waHQnLCAnMi4wJywgJy1waCcsICc3LjAnLCAnLXRuJywgJzgnLCAnLW1hJywgJzIwMCcsICctaW1hZScsICc8aW5maWxlLm1hZT4nLCAnLW9tYWUnLCAnPG91dGZpbGUubWFlPic=

>  <r_lp_tautomer_probability>  (292) 
1

>  <r_epik_Ionization_Penalty>  (292) 
1.27902e-07

>  <r_epik_Ionization_Penalty_Charging>  (292) 
0

>  <r_epik_Ionization_Penalty_Neutral>  (292) 
1.27902e-07

>  <r_epik_State_Penalty>  (292) 
-0

>  <r_epik_Charging_Adjusted_Penalty>  (292) 
0

>  <i_epik_Tot_Q>  (292) 
0

>  <i_epik_Tot_abs_Q>  (292) 
0

>  <s_lp_Force_Field>  (292) 
OPLS3e

>  <r_lp_Energy>  (292) 
76.9171

>  <b_lp_Chiralities_Consistent>  (292) 
1

>  <s_lp_Variant>  (292) 
102:0-1

>  <s_i_glide_gridfile>  (292) 
pfpi4k_grid

>  <i_i_glide_lignum>  (292) 
24

>  <i_i_glide_rotatable_bonds>  (292) 
5

>  <r_i_docking_score>  (292) 
-3.39743

>  <r_i_glide_ligand_efficiency>  (292) 
-0.13067

>  <r_i_glide_ligand_efficiency_sa>  (292) 
-0.387111

>  <r_i_glide_ligand_efficiency_ln>  (292) 
-0.797876

>  <r_i_glide_gscore>  (292) 
-3.39743

>  <r_i_glide_lipo>  (292) 
-0.182969

>  <r_i_glide_hbond>  (292) 
-0.148659

>  <r_i_glide_metal>  (292) 
-0

>  <r_i_glide_rewards>  (292) 
-1.04566

>  <r_i_glide_evdw>  (292) 
-20.5145

>  <r_i_glide_ecoul>  (292) 
-7.64872

>  <r_i_glide_erotb>  (292) 
0.152895

>  <r_i_glide_esite>  (292) 
0

>  <r_i_glide_emodel>  (292) 
-34.3275

>  <r_i_glide_energy>  (292) 
-28.1633

>  <r_i_glide_einternal>  (292) 
2.12407

>  <r_i_glide_intrahb_reward>  (292) 
-0

>  <i_i_glide_confnum>  (292) 
3

>  <i_i_glide_posenum>  (292) 
20

>  <r_i_glide_eff_state_penalty>  (292) 
0

>  <ligand_id>  (292) 
102

>  <original_smiles>  (292) 
CCC12C(O)C3(CO)OC14c1cc5[nH]cc(C=O)c5c(C)c1CCC4C32

>  <smiles>  (292) 
[H]OC([H])([H])C12OC34c5c(c(C([H])([H])[H])c6c(C([H])=O)c([H])n([H])c6c5[H])C([H])([H])C([H])([H])C3([H])C1([H])C4(C([H])([H])C([H])([H])[H])C2([H])O[H]

$$$$
102:0:2
     RDKit          3D

 49 54  0  0  1  0  0  0  0  0999 V2000
    2.2985   -7.1782    6.9644 C   0  0  0  0  0  0  0  0  0  0  0  0
    2.6807   -6.5794    5.5997 C   0  0  0  0  0  0  0  0  0  0  0  0
    1.8140   -7.0750    4.4220 C   0  0  1  0  0  0  0  0  0  0  0  0
    0.3294   -7.3864    4.6149 C   0  0  1  0  0  0  0  0  0  0  0  0
   -0.5805   -6.3018    4.5674 O   0  0  0  0  0  0  0  0  0  0  0  0
    0.5384   -8.1545    3.2952 C   0  0  1  0  0  0  0  0  0  0  0  0
   -0.3967   -9.2237    2.7560 C   0  0  0  0  0  0  0  0  0  0  0  0
   -1.7090   -9.0669    3.2613 O   0  0  0  0  0  0  0  0  0  0  0  0
    0.8947   -7.1537    2.3578 O   0  0  0  0  0  0  0  0  0  0  0  0
    2.1085   -6.7269    2.9627 C   0  0  1  0  0  0  0  0  0  0  0  0
    2.6681   -5.4858    2.3463 C   0  0  0  0  0  0  0  0  0  0  0  0
    2.2183   -4.2417    2.7917 C   0  0  0  0  0  0  0  0  0  0  0  0
    2.6780   -3.0863    2.1407 C   0  0  0  0  0  0  0  0  0  0  0  0
    2.3737   -1.7643    2.3582 N   0  0  0  0  0  0  0  0  0  0  0  0
    3.0646   -0.9659    1.4619 C   0  0  0  0  0  0  0  0  0  0  0  0
    3.8404   -1.7404    0.6430 C   0  0  0  0  0  0  0  0  0  0  0  0
    4.6539   -1.1190   -0.4032 C   0  0  0  0  0  0  0  0  0  0  0  0
    5.6687   -1.5738   -0.9275 O   0  0  0  0  0  0  0  0  0  0  0  0
    3.6131   -3.1184    1.0467 C   0  0  0  0  0  0  0  0  0  0  0  0
    4.0487   -4.4212    0.6350 C   0  0  0  0  0  0  0  0  0  0  0  0
    5.0583   -4.5286   -0.5027 C   0  0  0  0  0  0  0  0  0  0  0  0
    3.5757   -5.5985    1.2634 C   0  0  0  0  0  0  0  0  0  0  0  0
    4.0448   -7.0001    0.7868 C   0  0  0  0  0  0  0  0  0  0  0  0
    3.3593   -8.2336    1.4429 C   0  0  0  0  0  0  0  0  0  0  0  0
    3.0571   -7.9146    2.9027 C   0  0  2  0  0  0  0  0  0  0  0  0
    1.9474   -8.4746    3.7906 C   0  0  1  0  0  0  0  0  0  0  0  0
    1.7401   -1.4076    3.0590 H   0  0  0  0  0  0  0  0  0  0  0  0
    3.0007   -6.8599    7.7367 H   0  0  0  0  0  0  0  0  0  0  0  0
    2.3113   -8.2711    6.9346 H   0  0  0  0  0  0  0  0  0  0  0  0
    1.3026   -6.8604    7.2846 H   0  0  0  0  0  0  0  0  0  0  0  0
    2.5757   -5.5000    5.6640 H   0  0  0  0  0  0  0  0  0  0  0  0
    3.7465   -6.7543    5.4292 H   0  0  0  0  0  0  0  0  0  0  0  0
    0.1101   -8.0328    5.4650 H   0  0  0  0  0  0  0  0  0  0  0  0
   -0.4933   -5.8196    5.3736 H   0  0  0  0  0  0  0  0  0  0  0  0
   -0.4304   -9.1724    1.6864 H   0  0  0  0  0  0  0  0  0  0  0  0
   -0.0343  -10.2182    3.0176 H   0  0  0  0  0  0  0  0  0  0  0  0
   -1.8103   -9.6819    3.9917 H   0  0  0  0  0  0  0  0  0  0  0  0
    1.5011   -4.1842    3.5973 H   0  0  0  0  0  0  0  0  0  0  0  0
    2.9331    0.1065    1.4780 H   0  0  0  0  0  0  0  0  0  0  0  0
    4.2419   -0.1466   -0.6928 H   0  0  0  0  0  0  0  0  0  0  0  0
    5.3806   -5.5464   -0.7242 H   0  0  0  0  0  0  0  0  0  0  0  0
    5.9582   -3.9769   -0.2334 H   0  0  0  0  0  0  0  0  0  0  0  0
    4.6311   -4.1295   -1.4223 H   0  0  0  0  0  0  0  0  0  0  0  0
    3.9352   -7.0619   -0.2944 H   0  0  0  0  0  0  0  0  0  0  0  0
    5.1144   -7.0609    0.9942 H   0  0  0  0  0  0  0  0  0  0  0  0
    2.4255   -8.4340    0.9115 H   0  0  0  0  0  0  0  0  0  0  0  0
    3.9650   -9.1367    1.3070 H   0  0  0  0  0  0  0  0  0  0  0  0
    3.9689   -7.7516    3.4804 H   0  0  0  0  0  0  0  0  0  0  0  0
    2.1269   -9.2917    4.4975 H   0  0  0  0  0  0  0  0  0  0  0  0
  1  2  1  0
  1 28  1  0
  1 29  1  0
  1 30  1  0
  3  2  1  1
  2 31  1  0
  2 32  1  0
  3 10  1  0
  3 26  1  0
  3  4  1  0
  4  5  1  0
  4  6  1  0
  4 33  1  1
  5 34  1  0
  6 26  1  0
  6  7  1  6
  6  9  1  0
  7  8  1  0
  7 35  1  0
  7 36  1  0
  8 37  1  0
  9 10  1  0
 10 25  1  0
 10 11  1  1
 11 22  2  0
 11 12  1  0
 12 13  2  0
 12 38  1  0
 13 19  1  0
 13 14  1  0
 14 27  1  0
 14 15  1  0
 15 16  2  0
 15 39  1  0
 16 17  1  0
 16 19  1  0
 17 18  2  0
 17 40  1  0
 19 20  2  0
 20 21  1  0
 20 22  1  0
 21 41  1  0
 21 42  1  0
 21 43  1  0
 22 23  1  0
 23 24  1  0
 23 44  1  0
 23 45  1  0
 24 25  1  0
 24 46  1  0
 24 47  1  0
 25 26  1  0
 25 48  1  1
 26 49  1  1
M  END
>  <i_m_ct_stereo_status>  (293) 
1

>  <s_m_source_file>  (293) 
/var/tmp/pbs.5076255.sched01/tmp7yh4k8o6/114t33l0ocj.sdf

>  <i_m_source_file_index>  (293) 
24

>  <i_lp_mmshare_version>  (293) 
48012

>  <i_f3d_flags>  (293) 
0

>  <s_epik_input>  (293) 
W0NIM11bQ0gyXVtDQEBdMShbQ0BAXTIzNClbQ0BASF0oW0NAXShPMikoW0NAQEhdMVtPSF0pW0NIMl1bT0hdKVtDQEhdNFtDSDJdW0NIMl1jNWMzW2NIXWM2YyhjNVtDSDNdKWMoW0NIXT1PKVtjSF1bbkhdNg==

>  <s_epik_cmdline>  (293) 
J2VwaWtfcHl0aG9uJywgJy1waHQnLCAnMi4wJywgJy1waCcsICc3LjAnLCAnLXRuJywgJzgnLCAnLW1hJywgJzIwMCcsICctaW1hZScsICc8aW5maWxlLm1hZT4nLCAnLW9tYWUnLCAnPG91dGZpbGUubWFlPic=

>  <r_lp_tautomer_probability>  (293) 
1

>  <r_epik_Ionization_Penalty>  (293) 
1.27902e-07

>  <r_epik_Ionization_Penalty_Charging>  (293) 
0

>  <r_epik_Ionization_Penalty_Neutral>  (293) 
1.27902e-07

>  <r_epik_State_Penalty>  (293) 
-0

>  <r_epik_Charging_Adjusted_Penalty>  (293) 
0

>  <i_epik_Tot_Q>  (293) 
0

>  <i_epik_Tot_abs_Q>  (293) 
0

>  <s_lp_Force_Field>  (293) 
OPLS3e

>  <r_lp_Energy>  (293) 
76.9171

>  <b_lp_Chiralities_Consistent>  (293) 
1

>  <s_lp_Variant>  (293) 
102:0-1

>  <s_i_glide_gridfile>  (293) 
pfpi4k_grid

>  <i_i_glide_lignum>  (293) 
24

>  <i_i_glide_rotatable_bonds>  (293) 
5

>  <r_i_docking_score>  (293) 
-3.28448

>  <r_i_glide_ligand_efficiency>  (293) 
-0.126326

>  <r_i_glide_ligand_efficiency_sa>  (293) 
-0.374241

>  <r_i_glide_ligand_efficiency_ln>  (293) 
-0.77135

>  <r_i_glide_gscore>  (293) 
-3.28448

>  <r_i_glide_lipo>  (293) 
-0.214211

>  <r_i_glide_hbond>  (293) 
-0.00447367

>  <r_i_glide_metal>  (293) 
-0

>  <r_i_glide_rewards>  (293) 
-0.999466

>  <r_i_glide_evdw>  (293) 
-22.9086

>  <r_i_glide_ecoul>  (293) 
-6.87223

>  <r_i_glide_erotb>  (293) 
0.152895

>  <r_i_glide_esite>  (293) 
-0.0429645

>  <r_i_glide_emodel>  (293) 
-34.327

>  <r_i_glide_energy>  (293) 
-29.7808

>  <r_i_glide_einternal>  (293) 
4.50554

>  <r_i_glide_intrahb_reward>  (293) 
-0

>  <i_i_glide_confnum>  (293) 
3

>  <i_i_glide_posenum>  (293) 
36

>  <r_i_glide_eff_state_penalty>  (293) 
0

>  <ligand_id>  (293) 
102

>  <original_smiles>  (293) 
CCC12C(O)C3(CO)OC14c1cc5[nH]cc(C=O)c5c(C)c1CCC4C32

>  <smiles>  (293) 
[H]OC([H])([H])C12OC34c5c(c(C([H])([H])[H])c6c(C([H])=O)c([H])n([H])c6c5[H])C([H])([H])C([H])([H])C3([H])C1([H])C4(C([H])([H])C([H])([H])[H])C2([H])O[H]

$$$$
105:0:0
     RDKit          3D

 58 64  0  0  1  0  0  0  0  0999 V2000
    3.7061   -7.9301    1.3134 C   0  0  0  0  0  0  0  0  0  0  0  0
    2.8964   -6.7602    1.9267 C   0  0  1  0  0  0  0  0  0  0  0  0
    1.7238   -6.5461    0.9631 C   0  0  0  0  0  0  0  0  0  0  0  0
    0.4202   -6.6975    1.2737 C   0  0  0  0  0  0  0  0  0  0  0  0
    0.0245   -7.0421    2.6314 C   0  0  0  0  0  0  0  0  0  0  0  0
   -1.1716   -7.0509    2.9420 O   0  0  0  0  0  0  0  0  0  0  0  0
    1.0718   -7.2944    3.6272 C   0  0  0  0  0  0  0  0  0  0  0  0
    2.3877   -7.1810    3.3217 C   0  0  0  0  0  0  0  0  0  0  0  0
    3.4126   -7.6336    4.3582 C   0  0  0  0  0  0  0  0  0  0  0  0
    4.2795   -6.5583    4.9643 C   0  0  2  0  0  0  0  0  0  0  0  0
    3.8246   -5.1984    4.8220 O   0  0  0  0  0  0  0  0  0  0  0  0
    5.0656   -5.5528    4.1867 C   0  0  2  0  0  0  0  0  0  0  0  0
    5.1190   -5.4509    2.6762 C   0  0  2  0  0  0  0  0  0  0  0  0
    5.7906   -4.2121    2.4464 O   0  0  0  0  0  0  0  0  0  0  0  0
    6.1574   -3.9402    1.1051 C   0  0  0  0  0  0  0  0  0  0  0  0
    5.6804   -2.5412    0.6098 C   0  0  1  0  0  0  0  0  0  0  0  0
    6.2533   -1.4892    1.5706 C   0  0  0  0  0  0  0  0  0  0  0  0
    6.2397   -2.3101   -0.7735 C   0  0  1  0  0  0  0  0  0  0  0  0
    7.5500   -2.7178   -1.4159 C   0  0  0  0  0  0  0  0  0  0  0  0
    6.7923   -2.9756   -2.6358 O   0  0  0  0  0  0  0  0  0  0  0  0
    5.6446   -3.2186   -1.8249 C   0  0  2  0  0  0  0  0  0  0  0  0
    4.2989   -2.7182   -2.2409 C   0  0  1  0  0  0  0  0  0  0  0  0
    3.6398   -3.5167   -3.1917 O   0  0  0  0  0  0  0  0  0  0  0  0
    3.4510   -2.5596   -0.9547 C   0  0  1  0  0  0  0  0  0  0  0  0
    2.9215   -3.7892   -0.3852 O   0  0  0  0  0  0  0  0  0  0  0  0
    2.9792   -3.1515    0.9245 C   0  0  1  0  0  0  0  0  0  0  0  0
    3.0489   -4.0739    2.1536 C   0  0  1  0  0  0  0  0  0  0  0  0
    1.8008   -4.1733    2.8012 O   0  0  0  0  0  0  0  0  0  0  0  0
    3.7571   -5.4458    1.9226 C   0  0  2  0  0  0  0  0  0  0  0  0
    4.1326   -2.2709    0.4223 C   0  0  1  0  0  0  0  0  0  0  0  0
    3.1008   -8.8387    1.2824 H   0  0  0  0  0  0  0  0  0  0  0  0
    4.6166   -8.1761    1.8599 H   0  0  0  0  0  0  0  0  0  0  0  0
    4.0110   -7.7238    0.2864 H   0  0  0  0  0  0  0  0  0  0  0  0
    1.9936   -6.2401   -0.0363 H   0  0  0  0  0  0  0  0  0  0  0  0
   -0.3583   -6.5484    0.5376 H   0  0  0  0  0  0  0  0  0  0  0  0
    0.7553   -7.6194    4.6058 H   0  0  0  0  0  0  0  0  0  0  0  0
    2.8807   -8.1004    5.1893 H   0  0  0  0  0  0  0  0  0  0  0  0
    4.0579   -8.4154    3.9604 H   0  0  0  0  0  0  0  0  0  0  0  0
    4.6814   -6.7970    5.9466 H   0  0  0  0  0  0  0  0  0  0  0  0
    5.9614   -5.2020    4.6914 H   0  0  0  0  0  0  0  0  0  0  0  0
    5.7562   -6.2576    2.3158 H   0  0  0  0  0  0  0  0  0  0  0  0
    7.2467   -3.9513    1.1151 H   0  0  0  0  0  0  0  0  0  0  0  0
    5.9164   -4.7606    0.4355 H   0  0  0  0  0  0  0  0  0  0  0  0
    6.0653   -0.4675    1.2386 H   0  0  0  0  0  0  0  0  0  0  0  0
    7.3347   -1.5912    1.6293 H   0  0  0  0  0  0  0  0  0  0  0  0
    5.8440   -1.6048    2.5791 H   0  0  0  0  0  0  0  0  0  0  0  0
    6.0752   -1.2782   -1.0676 H   0  0  0  0  0  0  0  0  0  0  0  0
    8.2712   -1.9081   -1.5327 H   0  0  0  0  0  0  0  0  0  0  0  0
    8.0348   -3.6024   -1.0067 H   0  0  0  0  0  0  0  0  0  0  0  0
    5.6112   -4.2665   -1.5440 H   0  0  0  0  0  0  0  0  0  0  0  0
    4.4128   -1.7480   -2.7194 H   0  0  0  0  0  0  0  0  0  0  0  0
    3.4327   -4.3582   -2.7861 H   0  0  0  0  0  0  0  0  0  0  0  0
    2.6350   -1.8564   -1.1264 H   0  0  0  0  0  0  0  0  0  0  0  0
    2.1389   -2.4593    1.0395 H   0  0  0  0  0  0  0  0  0  0  0  0
    3.5966   -3.5094    2.9044 H   0  0  0  0  0  0  0  0  0  0  0  0
    1.9623   -4.5972    3.6334 H   0  0  0  0  0  0  0  0  0  0  0  0
    4.0343   -5.4267    0.8743 H   0  0  0  0  0  0  0  0  0  0  0  0
    3.8948   -1.2333    0.6505 H   0  0  0  0  0  0  0  0  0  0  0  0
  2  1  1  6
  1 31  1  0
  1 32  1  0
  1 33  1  0
  2  8  1  0
  2 29  1  0
  2  3  1  0
  3  4  2  0
  3 34  1  0
  4  5  1  0
  4 35  1  0
  5  6  2  0
  5  7  1  0
  7  8  2  0
  7 36  1  0
  8  9  1  0
  9 10  1  0
  9 37  1  0
  9 38  1  0
 10 12  1  0
 10 11  1  0
 10 39  1  1
 11 12  1  0
 12 13  1  0
 12 40  1  1
 13 29  1  0
 13 14  1  0
 13 41  1  6
 14 15  1  0
 15 16  1  0
 15 42  1  0
 15 43  1  0
 16 30  1  0
 16 17  1  1
 16 18  1  0
 17 44  1  0
 17 45  1  0
 17 46  1  0
 18 21  1  0
 18 19  1  0
 18 47  1  6
 19 20  1  0
 19 48  1  0
 19 49  1  0
 20 21  1  0
 21 22  1  0
 21 50  1  1
 22 23  1  0
 22 24  1  0
 22 51  1  6
 23 52  1  0
 24 30  1  0
 24 25  1  0
 24 53  1  6
 25 26  1  0
 26 27  1  0
 26 30  1  0
 26 54  1  1
 27 28  1  0
 27 29  1  0
 27 55  1  1
 28 56  1  0
 29 57  1  6
 30 58  1  1
M  END
>  <i_m_ct_stereo_status>  (294) 
1

>  <s_m_source_file>  (294) 
/var/tmp/pbs.5076255.sched01/tmp7yh4k8o6/114t33l0ocj.sdf

>  <i_m_source_file_index>  (294) 
28

>  <i_lp_mmshare_version>  (294) 
48012

>  <i_f3d_flags>  (294) 
0

>  <s_epik_input>  (294) 
W0NIXTE9W0NIXUMoPU8pW0NIXT1DKFtDQEBdMTJbQ0gzXSlbQ0gyXVtDQEhdM1tDQEhdKE8zKVtDQEhdNFtDQEBIXTJbQ0BIXShbT0hdKVtDQEhdNVtDQEhdNltDQF0oW0NIMl1PNCkoW0NIM10pW0NAQEhdN1tDQEhdKE9bQ0gyXTcpW0NAQEhdKFtPSF0pW0NASF02TzU=

>  <s_epik_cmdline>  (294) 
J2VwaWtfcHl0aG9uJywgJy1waHQnLCAnMi4wJywgJy1waCcsICc3LjAnLCAnLXRuJywgJzgnLCAnLW1hJywgJzIwMCcsICctaW1hZScsICc8aW5maWxlLm1hZT4nLCAnLW9tYWUnLCAnPG91dGZpbGUubWFlPic=

>  <r_lp_tautomer_probability>  (294) 
1

>  <r_epik_Ionization_Penalty>  (294) 
3.56539e-07

>  <r_epik_Ionization_Penalty_Charging>  (294) 
0

>  <r_epik_Ionization_Penalty_Neutral>  (294) 
3.56539e-07

>  <r_epik_State_Penalty>  (294) 
-0

>  <r_epik_Charging_Adjusted_Penalty>  (294) 
0

>  <i_epik_Tot_Q>  (294) 
0

>  <i_epik_Tot_abs_Q>  (294) 
0

>  <s_lp_Force_Field>  (294) 
OPLS3e

>  <r_lp_Energy>  (294) 
86.1971

>  <b_lp_Chiralities_Consistent>  (294) 
1

>  <s_lp_Variant>  (294) 
105:0-1

>  <s_i_glide_gridfile>  (294) 
pfpi4k_grid

>  <i_i_glide_lignum>  (294) 
28

>  <i_i_glide_rotatable_bonds>  (294) 
2

>  <r_i_docking_score>  (294) 
-3.50311

>  <r_i_glide_ligand_efficiency>  (294) 
-0.11677

>  <r_i_glide_ligand_efficiency_sa>  (294) 
-0.362832

>  <r_i_glide_ligand_efficiency_ln>  (294) 
-0.795944

>  <r_i_glide_gscore>  (294) 
-3.50311

>  <r_i_glide_lipo>  (294) 
-0.469074

>  <r_i_glide_hbond>  (294) 
-0.16

>  <r_i_glide_metal>  (294) 
-0

>  <r_i_glide_rewards>  (294) 
-1.06956

>  <r_i_glide_evdw>  (294) 
-27.2074

>  <r_i_glide_ecoul>  (294) 
-2.45003

>  <r_i_glide_erotb>  (294) 
0

>  <r_i_glide_esite>  (294) 
-0.0765972

>  <r_i_glide_emodel>  (294) 
-41.4957

>  <r_i_glide_energy>  (294) 
-29.6575

>  <r_i_glide_einternal>  (294) 
0.376116

>  <r_i_glide_intrahb_reward>  (294) 
-0.5

>  <i_i_glide_confnum>  (294) 
2

>  <i_i_glide_posenum>  (294) 
9

>  <r_i_glide_eff_state_penalty>  (294) 
0

>  <ligand_id>  (294) 
105

>  <original_smiles>  (294) 
CC12C=CC(=O)C=C1CC1OC1C1OCC3(C)C4COC4C(O)C4OC(C(O)C12)C43

>  <smiles>  (294) 
[H]OC1([H])C2([H])OC([H])([H])C2([H])C2(C([H])([H])[H])C([H])([H])OC3([H])C4([H])OC4([H])C([H])([H])C4=C([H])C(=O)C([H])=C([H])C4(C([H])([H])[H])C3([H])C([H])(O[H])C3([H])OC1([H])C32[H]

$$$$
105:0:1
     RDKit          3D

 58 64  0  0  1  0  0  0  0  0999 V2000
    3.7309   -7.8081    1.6765 C   0  0  0  0  0  0  0  0  0  0  0  0
    2.7785   -6.6929    2.1780 C   0  0  1  0  0  0  0  0  0  0  0  0
    1.7344   -6.5540    1.0664 C   0  0  0  0  0  0  0  0  0  0  0  0
    0.4111   -6.7647    1.2101 C   0  0  0  0  0  0  0  0  0  0  0  0
   -0.1278   -7.1153    2.5152 C   0  0  0  0  0  0  0  0  0  0  0  0
   -1.3537   -7.1764    2.6786 O   0  0  0  0  0  0  0  0  0  0  0  0
    0.7875   -7.3276    3.6377 C   0  0  0  0  0  0  0  0  0  0  0  0
    2.1261   -7.1409    3.5002 C   0  0  0  0  0  0  0  0  0  0  0  0
    3.0325   -7.5364    4.6587 C   0  0  0  0  0  0  0  0  0  0  0  0
    3.7521   -6.4126    5.3672 C   0  0  2  0  0  0  0  0  0  0  0  0
    3.2436   -5.0791    5.1717 O   0  0  0  0  0  0  0  0  0  0  0  0
    4.5670   -5.3605    4.6922 C   0  0  2  0  0  0  0  0  0  0  0  0
    4.8009   -5.2462    3.1984 C   0  0  2  0  0  0  0  0  0  0  0  0
    5.4090   -3.9621    3.0379 O   0  0  0  0  0  0  0  0  0  0  0  0
    5.9323   -3.6774    1.7513 C   0  0  0  0  0  0  0  0  0  0  0  0
    5.4567   -2.3083    1.1930 C   0  0  1  0  0  0  0  0  0  0  0  0
    5.8265   -1.2251    2.2249 C   0  0  0  0  0  0  0  0  0  0  0  0
    6.1949   -2.0426   -0.1041 C   0  0  1  0  0  0  0  0  0  0  0  0
    7.6094   -2.3561   -0.5523 C   0  0  0  0  0  0  0  0  0  0  0  0
    7.0627   -2.6025   -1.8852 O   0  0  0  0  0  0  0  0  0  0  0  0
    5.8178   -2.9660   -1.2404 C   0  0  2  0  0  0  0  0  0  0  0  0
    4.4778   -2.5807   -1.8100 C   0  0  1  0  0  0  0  0  0  0  0  0
    3.9941   -3.4605   -2.8101 O   0  0  0  0  0  0  0  0  0  0  0  0
    3.4743   -2.4647   -0.6386 C   0  0  1  0  0  0  0  0  0  0  0  0
    2.9368   -3.7159   -0.1359 O   0  0  0  0  0  0  0  0  0  0  0  0
    2.7875   -3.0780    1.1640 C   0  0  1  0  0  0  0  0  0  0  0  0
    2.7421   -4.0015    2.3993 C   0  0  1  0  0  0  0  0  0  0  0  0
    1.4224   -4.1796    2.8788 O   0  0  0  0  0  0  0  0  0  0  0  0
    3.5508   -5.3295    2.2751 C   0  0  2  0  0  0  0  0  0  0  0  0
    3.9418   -2.1350    0.8046 C   0  0  1  0  0  0  0  0  0  0  0  0
    3.1928   -8.7518    1.5793 H   0  0  0  0  0  0  0  0  0  0  0  0
    4.5815   -7.9973    2.3334 H   0  0  0  0  0  0  0  0  0  0  0  0
    4.1402   -7.5904    0.6869 H   0  0  0  0  0  0  0  0  0  0  0  0
    2.1267   -6.2547    0.1059 H   0  0  0  0  0  0  0  0  0  0  0  0
   -0.2760   -6.6716    0.3772 H   0  0  0  0  0  0  0  0  0  0  0  0
    0.3666   -7.6802    4.5650 H   0  0  0  0  0  0  0  0  0  0  0  0
    2.4255   -8.0343    5.4163 H   0  0  0  0  0  0  0  0  0  0  0  0
    3.7708   -8.2753    4.3525 H   0  0  0  0  0  0  0  0  0  0  0  0
    4.0343   -6.6312    6.3952 H   0  0  0  0  0  0  0  0  0  0  0  0
    5.3701   -4.9553    5.3027 H   0  0  0  0  0  0  0  0  0  0  0  0
    5.5311   -6.0090    2.9290 H   0  0  0  0  0  0  0  0  0  0  0  0
    7.0095   -3.6292    1.8998 H   0  0  0  0  0  0  0  0  0  0  0  0
    5.8303   -4.5106    1.0618 H   0  0  0  0  0  0  0  0  0  0  0  0
    5.6216   -0.2172    1.8659 H   0  0  0  0  0  0  0  0  0  0  0  0
    6.8939   -1.2432    2.4412 H   0  0  0  0  0  0  0  0  0  0  0  0
    5.2958   -1.3682    3.1709 H   0  0  0  0  0  0  0  0  0  0  0  0
    6.0069   -1.0276   -0.4247 H   0  0  0  0  0  0  0  0  0  0  0  0
    8.2763   -1.5003   -0.5110 H   0  0  0  0  0  0  0  0  0  0  0  0
    8.0653   -3.2241   -0.0910 H   0  0  0  0  0  0  0  0  0  0  0  0
    5.8337   -4.0168   -0.9594 H   0  0  0  0  0  0  0  0  0  0  0  0
    4.5838   -1.6113   -2.2893 H   0  0  0  0  0  0  0  0  0  0  0  0
    3.7754   -4.2905   -2.4136 H   0  0  0  0  0  0  0  0  0  0  0  0
    2.6542   -1.7983   -0.9156 H   0  0  0  0  0  0  0  0  0  0  0  0
    1.9104   -2.4269    1.1644 H   0  0  0  0  0  0  0  0  0  0  0  0
    3.1426   -3.4129    3.2188 H   0  0  0  0  0  0  0  0  0  0  0  0
    1.0514   -3.3319    3.0611 H   0  0  0  0  0  0  0  0  0  0  0  0
    3.9602   -5.2902    1.2730 H   0  0  0  0  0  0  0  0  0  0  0  0
    3.6082   -1.1199    0.9948 H   0  0  0  0  0  0  0  0  0  0  0  0
  2  1  1  6
  1 31  1  0
  1 32  1  0
  1 33  1  0
  2  8  1  0
  2 29  1  0
  2  3  1  0
  3  4  2  0
  3 34  1  0
  4  5  1  0
  4 35  1  0
  5  6  2  0
  5  7  1  0
  7  8  2  0
  7 36  1  0
  8  9  1  0
  9 10  1  0
  9 37  1  0
  9 38  1  0
 10 12  1  0
 10 11  1  0
 10 39  1  1
 11 12  1  0
 12 13  1  0
 12 40  1  1
 13 29  1  0
 13 14  1  0
 13 41  1  6
 14 15  1  0
 15 16  1  0
 15 42  1  0
 15 43  1  0
 16 30  1  0
 16 17  1  1
 16 18  1  0
 17 44  1  0
 17 45  1  0
 17 46  1  0
 18 21  1  0
 18 19  1  0
 18 47  1  6
 19 20  1  0
 19 48  1  0
 19 49  1  0
 20 21  1  0
 21 22  1  0
 21 50  1  1
 22 23  1  0
 22 24  1  0
 22 51  1  6
 23 52  1  0
 24 30  1  0
 24 25  1  0
 24 53  1  6
 25 26  1  0
 26 27  1  0
 26 30  1  0
 26 54  1  6
 27 28  1  0
 27 29  1  0
 27 55  1  1
 28 56  1  0
 29 57  1  6
 30 58  1  1
M  END
>  <i_m_ct_stereo_status>  (295) 
1

>  <s_m_source_file>  (295) 
/var/tmp/pbs.5076255.sched01/tmp7yh4k8o6/114t33l0ocj.sdf

>  <i_m_source_file_index>  (295) 
28

>  <i_lp_mmshare_version>  (295) 
48012

>  <i_f3d_flags>  (295) 
0

>  <s_epik_input>  (295) 
W0NIXTE9W0NIXUMoPU8pW0NIXT1DKFtDQEBdMTJbQ0gzXSlbQ0gyXVtDQEhdM1tDQEhdKE8zKVtDQEhdNFtDQEBIXTJbQ0BIXShbT0hdKVtDQEhdNVtDQEhdNltDQF0oW0NIMl1PNCkoW0NIM10pW0NAQEhdN1tDQEhdKE9bQ0gyXTcpW0NAQEhdKFtPSF0pW0NASF02TzU=

>  <s_epik_cmdline>  (295) 
J2VwaWtfcHl0aG9uJywgJy1waHQnLCAnMi4wJywgJy1waCcsICc3LjAnLCAnLXRuJywgJzgnLCAnLW1hJywgJzIwMCcsICctaW1hZScsICc8aW5maWxlLm1hZT4nLCAnLW9tYWUnLCAnPG91dGZpbGUubWFlPic=

>  <r_lp_tautomer_probability>  (295) 
1

>  <r_epik_Ionization_Penalty>  (295) 
3.56539e-07

>  <r_epik_Ionization_Penalty_Charging>  (295) 
0

>  <r_epik_Ionization_Penalty_Neutral>  (295) 
3.56539e-07

>  <r_epik_State_Penalty>  (295) 
-0

>  <r_epik_Charging_Adjusted_Penalty>  (295) 
0

>  <i_epik_Tot_Q>  (295) 
0

>  <i_epik_Tot_abs_Q>  (295) 
0

>  <s_lp_Force_Field>  (295) 
OPLS3e

>  <r_lp_Energy>  (295) 
86.1971

>  <b_lp_Chiralities_Consistent>  (295) 
1

>  <s_lp_Variant>  (295) 
105:0-1

>  <s_i_glide_gridfile>  (295) 
pfpi4k_grid

>  <i_i_glide_lignum>  (295) 
28

>  <i_i_glide_rotatable_bonds>  (295) 
2

>  <r_i_docking_score>  (295) 
-3.42847

>  <r_i_glide_ligand_efficiency>  (295) 
-0.114282

>  <r_i_glide_ligand_efficiency_sa>  (295) 
-0.355102

>  <r_i_glide_ligand_efficiency_ln>  (295) 
-0.778985

>  <r_i_glide_gscore>  (295) 
-3.42847

>  <r_i_glide_lipo>  (295) 
-0.295058

>  <r_i_glide_hbond>  (295) 
-0.289129

>  <r_i_glide_metal>  (295) 
-0

>  <r_i_glide_rewards>  (295) 
-0.569562

>  <r_i_glide_evdw>  (295) 
-28.4301

>  <r_i_glide_ecoul>  (295) 
-5.124

>  <r_i_glide_erotb>  (295) 
0

>  <r_i_glide_esite>  (295) 
-0.0846134

>  <r_i_glide_emodel>  (295) 
-40.3328

>  <r_i_glide_energy>  (295) 
-33.5541

>  <r_i_glide_einternal>  (295) 
0.374428

>  <r_i_glide_intrahb_reward>  (295) 
-0

>  <i_i_glide_confnum>  (295) 
2

>  <i_i_glide_posenum>  (295) 
28

>  <r_i_glide_eff_state_penalty>  (295) 
0

>  <ligand_id>  (295) 
105

>  <original_smiles>  (295) 
CC12C=CC(=O)C=C1CC1OC1C1OCC3(C)C4COC4C(O)C4OC(C(O)C12)C43

>  <smiles>  (295) 
[H]OC1([H])C2([H])OC([H])([H])C2([H])C2(C([H])([H])[H])C([H])([H])OC3([H])C4([H])OC4([H])C([H])([H])C4=C([H])C(=O)C([H])=C([H])C4(C([H])([H])[H])C3([H])C([H])(O[H])C3([H])OC1([H])C32[H]

$$$$
105:0:2
     RDKit          3D

 58 64  0  0  1  0  0  0  0  0999 V2000
    3.8788   -8.1286    1.7409 C   0  0  0  0  0  0  0  0  0  0  0  0
    2.8692   -7.1246    2.3505 C   0  0  1  0  0  0  0  0  0  0  0  0
    1.7777   -6.9904    1.2902 C   0  0  0  0  0  0  0  0  0  0  0  0
    0.4748   -7.2912    1.4580 C   0  0  0  0  0  0  0  0  0  0  0  0
   -0.0062   -7.7757    2.7490 C   0  0  0  0  0  0  0  0  0  0  0  0
   -1.2156   -7.9637    2.9354 O   0  0  0  0  0  0  0  0  0  0  0  0
    0.9749   -7.9956    3.8180 C   0  0  0  0  0  0  0  0  0  0  0  0
    2.2896   -7.7102    3.6563 C   0  0  0  0  0  0  0  0  0  0  0  0
    3.2704   -8.1051    4.7552 C   0  0  0  0  0  0  0  0  0  0  0  0
    3.9265   -6.9752    5.5107 C   0  0  2  0  0  0  0  0  0  0  0  0
    3.3024   -5.6746    5.4075 O   0  0  0  0  0  0  0  0  0  0  0  0
    4.6417   -5.8200    4.8821 C   0  0  2  0  0  0  0  0  0  0  0  0
    4.8243   -5.5945    3.3964 C   0  0  2  0  0  0  0  0  0  0  0  0
    5.3551   -4.2689    3.3016 O   0  0  0  0  0  0  0  0  0  0  0  0
    5.7843   -3.8601    2.0117 C   0  0  0  0  0  0  0  0  0  0  0  0
    5.1834   -2.4927    1.5757 C   0  0  1  0  0  0  0  0  0  0  0  0
    5.5253   -1.4536    2.6634 C   0  0  0  0  0  0  0  0  0  0  0  0
    5.8453   -2.0856    0.2699 C   0  0  1  0  0  0  0  0  0  0  0  0
    7.2634   -2.2600   -0.2461 C   0  0  0  0  0  0  0  0  0  0  0  0
    6.7023   -2.4649   -1.5745 O   0  0  0  0  0  0  0  0  0  0  0  0
    5.5063   -2.9597   -0.9207 C   0  0  2  0  0  0  0  0  0  0  0  0
    4.1160   -2.6380   -1.4035 C   0  0  1  0  0  0  0  0  0  0  0  0
    3.6550   -3.4473   -2.4632 O   0  0  0  0  0  0  0  0  0  0  0  0
    3.1646   -2.7344   -0.1871 C   0  0  1  0  0  0  0  0  0  0  0  0
    2.7761   -4.0468    0.2683 O   0  0  0  0  0  0  0  0  0  0  0  0
    2.6060   -3.4743    1.5975 C   0  0  1  0  0  0  0  0  0  0  0  0
    2.6483   -4.4646    2.7647 C   0  0  1  0  0  0  0  0  0  0  0  0
    1.3511   -4.7665    3.2395 O   0  0  0  0  0  0  0  0  0  0  0  0
    3.5472   -5.7179    2.5197 C   0  0  2  0  0  0  0  0  0  0  0  0
    3.6543   -2.4199    1.2526 C   0  0  1  0  0  0  0  0  0  0  0  0
    3.4085   -9.1040    1.5988 H   0  0  0  0  0  0  0  0  0  0  0  0
    4.7663   -8.2903    2.3528 H   0  0  0  0  0  0  0  0  0  0  0  0
    4.2311   -7.8101    0.7556 H   0  0  0  0  0  0  0  0  0  0  0  0
    2.1096   -6.6150    0.3324 H   0  0  0  0  0  0  0  0  0  0  0  0
   -0.2378   -7.1962    0.6548 H   0  0  0  0  0  0  0  0  0  0  0  0
    0.6154   -8.4442    4.7306 H   0  0  0  0  0  0  0  0  0  0  0  0
    2.7343   -8.6956    5.5013 H   0  0  0  0  0  0  0  0  0  0  0  0
    4.0503   -8.7644    4.3762 H   0  0  0  0  0  0  0  0  0  0  0  0
    4.2634   -7.2298    6.5136 H   0  0  0  0  0  0  0  0  0  0  0  0
    5.4284   -5.3954    5.5024 H   0  0  0  0  0  0  0  0  0  0  0  0
    5.5923   -6.2845    3.0524 H   0  0  0  0  0  0  0  0  0  0  0  0
    6.8664   -3.7428    2.0761 H   0  0  0  0  0  0  0  0  0  0  0  0
    5.6801   -4.6482    1.2737 H   0  0  0  0  0  0  0  0  0  0  0  0
    5.2225   -0.4410    2.3778 H   0  0  0  0  0  0  0  0  0  0  0  0
    6.5958   -1.4204    2.8427 H   0  0  0  0  0  0  0  0  0  0  0  0
    5.0271   -1.6929    3.6087 H   0  0  0  0  0  0  0  0  0  0  0  0
    5.5723   -1.0595    0.0251 H   0  0  0  0  0  0  0  0  0  0  0  0
    7.8511   -1.3489   -0.1637 H   0  0  0  0  0  0  0  0  0  0  0  0
    7.8022   -3.1232    0.1377 H   0  0  0  0  0  0  0  0  0  0  0  0
    5.6008   -4.0275   -0.7070 H   0  0  0  0  0  0  0  0  0  0  0  0
    4.1131   -1.6183   -1.7878 H   0  0  0  0  0  0  0  0  0  0  0  0
    3.5086   -4.3319   -2.1489 H   0  0  0  0  0  0  0  0  0  0  0  0
    2.2594   -2.1906   -0.3818 H   0  0  0  0  0  0  0  0  0  0  0  0
    1.6878   -2.8873    1.6722 H   0  0  0  0  0  0  0  0  0  0  0  0
    3.0346   -3.8978    3.6074 H   0  0  0  0  0  0  0  0  0  0  0  0
    1.4767   -5.2582    4.0400 H   0  0  0  0  0  0  0  0  0  0  0  0
    3.9135   -5.5929    1.5097 H   0  0  0  0  0  0  0  0  0  0  0  0
    3.2509   -1.4442    1.5106 H   0  0  0  0  0  0  0  0  0  0  0  0
  2  1  1  6
  1 31  1  0
  1 32  1  0
  1 33  1  0
  2  8  1  0
  2 29  1  0
  2  3  1  0
  3  4  2  0
  3 34  1  0
  4  5  1  0
  4 35  1  0
  5  6  2  0
  5  7  1  0
  7  8  2  0
  7 36  1  0
  8  9  1  0
  9 10  1  0
  9 37  1  0
  9 38  1  0
 10 12  1  0
 10 11  1  0
 10 39  1  1
 11 12  1  0
 12 13  1  0
 12 40  1  1
 13 29  1  0
 13 14  1  0
 13 41  1  6
 14 15  1  0
 15 16  1  0
 15 42  1  0
 15 43  1  0
 16 30  1  0
 16 17  1  1
 16 18  1  0
 17 44  1  0
 17 45  1  0
 17 46  1  0
 18 21  1  0
 18 19  1  0
 18 47  1  6
 19 20  1  0
 19 48  1  0
 19 49  1  0
 20 21  1  0
 21 22  1  0
 21 50  1  1
 22 23  1  0
 22 24  1  0
 22 51  1  6
 23 52  1  0
 24 30  1  0
 24 25  1  0
 24 53  1  6
 25 26  1  0
 26 27  1  0
 26 30  1  0
 26 54  1  6
 27 28  1  0
 27 29  1  0
 27 55  1  1
 28 56  1  0
 29 57  1  6
 30 58  1  1
M  END
>  <i_m_ct_stereo_status>  (296) 
1

>  <s_m_source_file>  (296) 
/var/tmp/pbs.5076255.sched01/tmp7yh4k8o6/114t33l0ocj.sdf

>  <i_m_source_file_index>  (296) 
28

>  <i_lp_mmshare_version>  (296) 
48012

>  <i_f3d_flags>  (296) 
0

>  <s_epik_input>  (296) 
W0NIXTE9W0NIXUMoPU8pW0NIXT1DKFtDQEBdMTJbQ0gzXSlbQ0gyXVtDQEhdM1tDQEhdKE8zKVtDQEhdNFtDQEBIXTJbQ0BIXShbT0hdKVtDQEhdNVtDQEhdNltDQF0oW0NIMl1PNCkoW0NIM10pW0NAQEhdN1tDQEhdKE9bQ0gyXTcpW0NAQEhdKFtPSF0pW0NASF02TzU=

>  <s_epik_cmdline>  (296) 
J2VwaWtfcHl0aG9uJywgJy1waHQnLCAnMi4wJywgJy1waCcsICc3LjAnLCAnLXRuJywgJzgnLCAnLW1hJywgJzIwMCcsICctaW1hZScsICc8aW5maWxlLm1hZT4nLCAnLW9tYWUnLCAnPG91dGZpbGUubWFlPic=

>  <r_lp_tautomer_probability>  (296) 
1

>  <r_epik_Ionization_Penalty>  (296) 
3.56539e-07

>  <r_epik_Ionization_Penalty_Charging>  (296) 
0

>  <r_epik_Ionization_Penalty_Neutral>  (296) 
3.56539e-07

>  <r_epik_State_Penalty>  (296) 
-0

>  <r_epik_Charging_Adjusted_Penalty>  (296) 
0

>  <i_epik_Tot_Q>  (296) 
0

>  <i_epik_Tot_abs_Q>  (296) 
0

>  <s_lp_Force_Field>  (296) 
OPLS3e

>  <r_lp_Energy>  (296) 
86.1971

>  <b_lp_Chiralities_Consistent>  (296) 
1

>  <s_lp_Variant>  (296) 
105:0-1

>  <s_i_glide_gridfile>  (296) 
pfpi4k_grid

>  <i_i_glide_lignum>  (296) 
28

>  <i_i_glide_rotatable_bonds>  (296) 
2

>  <r_i_docking_score>  (296) 
-3.38356

>  <r_i_glide_ligand_efficiency>  (296) 
-0.112785

>  <r_i_glide_ligand_efficiency_sa>  (296) 
-0.350451

>  <r_i_glide_ligand_efficiency_ln>  (296) 
-0.768782

>  <r_i_glide_gscore>  (296) 
-3.38356

>  <r_i_glide_lipo>  (296) 
-0.250461

>  <r_i_glide_hbond>  (296) 
-0.119721

>  <r_i_glide_metal>  (296) 
-0

>  <r_i_glide_rewards>  (296) 
-1.06956

>  <r_i_glide_evdw>  (296) 
-25.823

>  <r_i_glide_ecoul>  (296) 
-4.01565

>  <r_i_glide_erotb>  (296) 
0

>  <r_i_glide_esite>  (296) 
-0.0503202

>  <r_i_glide_emodel>  (296) 
-41.4684

>  <r_i_glide_energy>  (296) 
-29.8387

>  <r_i_glide_einternal>  (296) 
0.367797

>  <r_i_glide_intrahb_reward>  (296) 
-0.5

>  <i_i_glide_confnum>  (296) 
1

>  <i_i_glide_posenum>  (296) 
1

>  <r_i_glide_eff_state_penalty>  (296) 
0

>  <ligand_id>  (296) 
105

>  <original_smiles>  (296) 
CC12C=CC(=O)C=C1CC1OC1C1OCC3(C)C4COC4C(O)C4OC(C(O)C12)C43

>  <smiles>  (296) 
[H]OC1([H])C2([H])OC([H])([H])C2([H])C2(C([H])([H])[H])C([H])([H])OC3([H])C4([H])OC4([H])C([H])([H])C4=C([H])C(=O)C([H])=C([H])C4(C([H])([H])[H])C3([H])C([H])(O[H])C3([H])OC1([H])C32[H]

$$$$
106:0:0
     RDKit          3D

 85 92  0  0  1  0  0  0  0  0999 V2000
    0.7564  -12.0150    4.8549 C   0  0  0  0  0  0  0  0  0  0  0  0
    1.0324  -10.6623    4.2587 C   0  0  0  0  0  0  0  0  0  0  0  0
    0.8664  -10.4229    2.8825 C   0  0  0  0  0  0  0  0  0  0  0  0
    1.1592   -9.1394    2.3541 C   0  0  0  0  0  0  0  0  0  0  0  0
    1.6130   -8.1097    3.2106 C   0  0  0  0  0  0  0  0  0  0  0  0
    1.9181   -6.4832    2.5146 S   0  0  0  0  0  0  0  0  0  0  0  0
    2.8829   -6.6404    1.4106 O   0  0  0  0  0  0  0  0  0  0  0  0
    0.6179   -5.8571    2.2373 O   0  0  0  0  0  0  0  0  0  0  0  0
    2.6972   -5.5471    3.7683 N   0  0  0  0  0  0  0  0  0  0  0  0
    4.1545   -5.4252    3.9779 C   0  0  1  0  0  0  0  0  0  0  0  0
    4.5920   -4.7241    2.8160 O   0  0  0  0  0  0  0  0  0  0  0  0
    5.8360   -5.1762    2.2857 C   0  0  0  0  0  0  0  0  0  0  0  0
    6.2170   -4.4284    1.0179 C   0  0  0  0  0  0  0  0  0  0  0  0
    5.2306   -4.1510    0.0488 C   0  0  0  0  0  0  0  0  0  0  0  0
    5.5680   -3.4554   -1.1289 C   0  0  0  0  0  0  0  0  0  0  0  0
    6.8973   -3.0444   -1.3484 C   0  0  0  0  0  0  0  0  0  0  0  0
    7.8911   -3.3310   -0.3920 C   0  0  0  0  0  0  0  0  0  0  0  0
    7.5526   -4.0293    0.7851 C   0  0  0  0  0  0  0  0  0  0  0  0
    4.2520   -4.5712    5.2897 C   0  0  1  0  0  0  0  0  0  0  0  0
    5.4406   -3.8308    5.3879 O   0  0  0  0  0  0  0  0  0  0  0  0
    2.8892   -3.8025    5.4085 C   0  0  1  0  0  0  0  0  0  0  0  0
    2.7140   -2.6318    4.3543 C   0  0  0  0  0  0  0  0  0  0  0  0
    2.8997   -1.0489    4.6037 C   0  0  2  0  0  0  0  0  0  0  0  0
    4.0475   -0.9208    5.5443 C   0  0  0  0  0  0  0  0  0  0  0  0
    3.4603   -1.3497    6.9442 C   0  0  1  0  0  0  0  0  0  0  0  0
    3.4883   -0.2551    7.8397 O   0  0  0  0  0  0  0  0  0  0  0  0
    2.0231   -2.0920    7.0312 C   0  0  1  0  0  0  0  0  0  0  0  0
    0.5787   -1.6991    6.3989 C   0  0  1  0  0  0  0  0  0  0  0  0
    0.1874   -1.2101    4.9094 C   0  0  0  0  0  0  0  0  0  0  0  0
    1.0761   -0.1294    4.2105 C   0  0  1  0  0  0  0  0  0  0  0  0
    2.0821    0.2219    5.1684 C   0  0  0  0  0  0  0  0  0  0  0  0
    2.3697   -0.3543    3.2952 C   0  0  0  0  0  0  0  0  0  0  0  0
    3.2102    0.8277    2.7219 C   0  0  0  0  0  0  0  0  0  0  0  0
    2.0164   -1.1368    2.0125 C   0  0  0  0  0  0  0  0  0  0  0  0
   -0.1827   -2.8811    6.6001 O   0  0  0  0  0  0  0  0  0  0  0  0
    0.6709   -4.0168    6.5295 C   0  0  1  0  0  0  0  0  0  0  0  0
    0.5939   -4.7597    5.1743 C   0  0  0  0  0  0  0  0  0  0  0  0
    2.0776   -5.0307    4.9921 C   0  0  1  0  0  0  0  0  0  0  0  0
    2.1534   -3.5671    6.7549 C   0  0  1  0  0  0  0  0  0  0  0  0
    2.7748   -4.3239    7.9653 C   0  0  0  0  0  0  0  0  0  0  0  0
    1.7866   -8.3730    4.5836 C   0  0  0  0  0  0  0  0  0  0  0  0
    1.4840   -9.6364    5.1058 C   0  0  0  0  0  0  0  0  0  0  0  0
    0.3573  -12.7008    4.1095 H   0  0  0  0  0  0  0  0  0  0  0  0
    0.0365  -11.9091    5.6669 H   0  0  0  0  0  0  0  0  0  0  0  0
    1.6855  -12.4179    5.2597 H   0  0  0  0  0  0  0  0  0  0  0  0
    0.5214  -11.2102    2.2244 H   0  0  0  0  0  0  0  0  0  0  0  0
    1.0354   -8.9427    1.2980 H   0  0  0  0  0  0  0  0  0  0  0  0
    4.6073   -6.4109    4.0883 H   0  0  0  0  0  0  0  0  0  0  0  0
    6.6154   -5.0540    3.0384 H   0  0  0  0  0  0  0  0  0  0  0  0
    5.7811   -6.2407    2.0482 H   0  0  0  0  0  0  0  0  0  0  0  0
    4.2137   -4.4775    0.2133 H   0  0  0  0  0  0  0  0  0  0  0  0
    4.8027   -3.2442   -1.8602 H   0  0  0  0  0  0  0  0  0  0  0  0
    7.1558   -2.5246   -2.2577 H   0  0  0  0  0  0  0  0  0  0  0  0
    8.9090   -3.0191   -0.5663 H   0  0  0  0  0  0  0  0  0  0  0  0
    8.3172   -4.2555    1.5114 H   0  0  0  0  0  0  0  0  0  0  0  0
    4.3416   -5.2913    6.1054 H   0  0  0  0  0  0  0  0  0  0  0  0
    5.4153   -3.1780    4.7021 H   0  0  0  0  0  0  0  0  0  0  0  0
    3.4351   -2.8484    3.5758 H   0  0  0  0  0  0  0  0  0  0  0  0
    1.8067   -2.8567    3.8206 H   0  0  0  0  0  0  0  0  0  0  0  0
    4.9031   -1.5035    5.2287 H   0  0  0  0  0  0  0  0  0  0  0  0
    4.4290    0.1023    5.5854 H   0  0  0  0  0  0  0  0  0  0  0  0
    4.2103   -2.0194    7.3654 H   0  0  0  0  0  0  0  0  0  0  0  0
    3.3588   -0.5776    8.7208 H   0  0  0  0  0  0  0  0  0  0  0  0
    1.8003   -2.0436    8.0981 H   0  0  0  0  0  0  0  0  0  0  0  0
    0.1540   -0.9505    7.0678 H   0  0  0  0  0  0  0  0  0  0  0  0
   -0.0080   -2.0399    4.2398 H   0  0  0  0  0  0  0  0  0  0  0  0
   -0.8155   -0.7925    5.0047 H   0  0  0  0  0  0  0  0  0  0  0  0
    0.5095    0.7421    3.8880 H   0  0  0  0  0  0  0  0  0  0  0  0
    1.7366    0.3289    6.1909 H   0  0  0  0  0  0  0  0  0  0  0  0
    2.5172    1.2099    5.0211 H   0  0  0  0  0  0  0  0  0  0  0  0
    2.5851    1.5739    2.2285 H   0  0  0  0  0  0  0  0  0  0  0  0
    3.9311    0.4729    1.9869 H   0  0  0  0  0  0  0  0  0  0  0  0
    3.8220    1.3454    3.4579 H   0  0  0  0  0  0  0  0  0  0  0  0
    1.7313   -0.4491    1.2195 H   0  0  0  0  0  0  0  0  0  0  0  0
    1.1513   -1.7937    2.1301 H   0  0  0  0  0  0  0  0  0  0  0  0
    2.8507   -1.7325    1.6384 H   0  0  0  0  0  0  0  0  0  0  0  0
    0.3564   -4.6943    7.3257 H   0  0  0  0  0  0  0  0  0  0  0  0
    0.0186   -5.6831    5.2586 H   0  0  0  0  0  0  0  0  0  0  0  0
    0.1621   -4.1765    4.3666 H   0  0  0  0  0  0  0  0  0  0  0  0
    2.2673   -5.7754    5.7536 H   0  0  0  0  0  0  0  0  0  0  0  0
    2.2426   -4.1087    8.8919 H   0  0  0  0  0  0  0  0  0  0  0  0
    3.8199   -4.0630    8.1213 H   0  0  0  0  0  0  0  0  0  0  0  0
    2.7367   -5.4053    7.8498 H   0  0  0  0  0  0  0  0  0  0  0  0
    2.1518   -7.6497    5.2717 H   0  0  0  0  0  0  0  0  0  0  0  0
    1.6099   -9.8204    6.1594 H   0  0  0  0  0  0  0  0  0  0  0  0
  1  2  1  0
  1 43  1  0
  1 44  1  0
  1 45  1  0
  2 42  2  0
  2  3  1  0
  3  4  2  0
  3 46  1  0
  4  5  1  0
  4 47  1  0
  5  6  1  0
  5 41  2  0
  6  7  2  0
  6  8  2  0
  6  9  1  0
  9 38  1  0
  9 10  1  0
 10 11  1  0
 10 19  1  0
 10 48  1  1
 11 12  1  0
 12 13  1  0
 12 49  1  0
 12 50  1  0
 13 18  1  0
 13 14  2  0
 14 15  1  0
 14 51  1  0
 15 16  2  0
 15 52  1  0
 16 17  1  0
 16 53  1  0
 17 18  2  0
 17 54  1  0
 18 55  1  0
 19 20  1  0
 19 21  1  0
 19 56  1  1
 20 57  1  0
 21 38  1  0
 21 39  1  0
 21 22  1  6
 23 22  1  1
 22 58  1  0
 22 59  1  0
 23 31  1  0
 23 32  1  0
 23 24  1  0
 24 25  1  0
 24 60  1  0
 24 61  1  0
 25 26  1  0
 25 27  1  0
 25 62  1  1
 26 63  1  0
 27 39  1  0
 27 28  1  0
 27 64  1  1
 28 29  1  0
 28 35  1  0
 28 65  1  1
 29 30  1  0
 29 66  1  0
 29 67  1  0
 30 31  1  0
 30 32  1  0
 30 68  1  6
 31 69  1  0
 31 70  1  0
 32 33  1  0
 32 34  1  0
 33 71  1  0
 33 72  1  0
 33 73  1  0
 34 74  1  0
 34 75  1  0
 34 76  1  0
 35 36  1  0
 36 37  1  0
 36 39  1  0
 36 77  1  1
 37 38  1  0
 37 78  1  0
 37 79  1  0
 38 80  1  1
 39 40  1  1
 40 81  1  0
 40 82  1  0
 40 83  1  0
 41 42  1  0
 41 84  1  0
 42 85  1  0
M  END
>  <i_m_ct_stereo_status>  (297) 
1

>  <s_m_source_file>  (297) 
/var/tmp/pbs.5076255.sched01/tmp7yh4k8o6/114t33l0ocj.sdf

>  <i_m_source_file_index>  (297) 
29

>  <i_lp_mmshare_version>  (297) 
48012

>  <i_f3d_flags>  (297) 
0

>  <s_epik_input>  (297) 
W2NIXTFbY0hdW2NIXVtjSF1bY0hdYzFbQ0gyXU9bQ0BASF0oW0NASF0yW09IXSlOKFMoPU8pKD1PKWMoW2NIXVtjSF0zKVtjSF1bY0hdYzNbQ0gzXSlbQ0BASF0oW0NAQF0yNDUpW0NIMl1bQ0BIXTZbQ0BdNShbQ0gzXSlbQ0BASF03W0NASF0oTzYpW0NIMl1bQ0BIXThbQ0gyXUMoW0NIMl00KShDOChbQ0gzXSlbQ0gzXSlbQ0gyXVtDQEhdN1tPSF0=

>  <s_epik_cmdline>  (297) 
J2VwaWtfcHl0aG9uJywgJy1waHQnLCAnMi4wJywgJy1waCcsICc3LjAnLCAnLXRuJywgJzgnLCAnLW1hJywgJzIwMCcsICctaW1hZScsICc8aW5maWxlLm1hZT4nLCAnLW9tYWUnLCAnPG91dGZpbGUubWFlPic=

>  <r_lp_tautomer_probability>  (297) 
1

>  <r_epik_Ionization_Penalty>  (297) 
3.36297e-06

>  <r_epik_Ionization_Penalty_Charging>  (297) 
0

>  <r_epik_Ionization_Penalty_Neutral>  (297) 
3.36297e-06

>  <r_epik_State_Penalty>  (297) 
-0

>  <r_epik_Charging_Adjusted_Penalty>  (297) 
0

>  <i_epik_Tot_Q>  (297) 
0

>  <i_epik_Tot_abs_Q>  (297) 
0

>  <s_epik_Chemistry_Notes>  (297) 
This compound contains an acetal/aminal-like group ( X-CH(R)-Y where X, Y are N, S, or O) that may be acid/base labile, releasing an aldehyde.

>  <s_lp_Force_Field>  (297) 
OPLS3e

>  <r_lp_Energy>  (297) 
203.885

>  <b_lp_Chiralities_Consistent>  (297) 
1

>  <s_lp_Variant>  (297) 
106:0-1

>  <s_i_glide_gridfile>  (297) 
pfpi4k_grid

>  <i_i_glide_lignum>  (297) 
29

>  <i_i_glide_rotatable_bonds>  (297) 
7

>  <r_i_docking_score>  (297) 
-2.8994

>  <r_i_glide_ligand_efficiency>  (297) 
-0.0690332

>  <r_i_glide_ligand_efficiency_sa>  (297) 
-0.239961

>  <r_i_glide_ligand_efficiency_ln>  (297) 
-0.611988

>  <r_i_glide_gscore>  (297) 
-2.8994

>  <r_i_glide_lipo>  (297) 
-0.868877

>  <r_i_glide_hbond>  (297) 
0

>  <r_i_glide_metal>  (297) 
-0

>  <r_i_glide_rewards>  (297) 
0

>  <r_i_glide_evdw>  (297) 
-29.2033

>  <r_i_glide_ecoul>  (297) 
-4.38031

>  <r_i_glide_erotb>  (297) 
0.185827

>  <r_i_glide_esite>  (297) 
-0.0991322

>  <r_i_glide_emodel>  (297) 
-38.1412

>  <r_i_glide_energy>  (297) 
-33.5836

>  <r_i_glide_einternal>  (297) 
3.37589

>  <r_i_glide_intrahb_reward>  (297) 
-0

>  <i_i_glide_confnum>  (297) 
5

>  <i_i_glide_posenum>  (297) 
1

>  <r_i_glide_eff_state_penalty>  (297) 
0

>  <ligand_id>  (297) 
106

>  <original_smiles>  (297) 
Cc1ccc(S(=O)(=O)N2C(OCc3ccccc3)C(O)C34CC56CC(O)C7C(CC(C5)C6(C)C)OC(CC23)C74C)cc1

>  <smiles>  (297) 
[H]OC1([H])C([H])([H])C23C([H])([H])C([H])(C([H])([H])C4([H])OC5([H])C([H])([H])C6([H])N(S(=O)(=O)c7c([H])c([H])c(C([H])([H])[H])c([H])c7[H])C([H])(OC([H])([H])c7c([H])c([H])c([H])c([H])c7[H])C([H])(O[H])C6(C2([H])[H])C5(C([H])([H])[H])C41[H])C3(C([H])([H])[H])C([H])([H])[H]

$$$$
106:0:1
     RDKit          3D

 85 92  0  0  1  0  0  0  0  0999 V2000
    2.1785  -12.1185    4.4898 C   0  0  0  0  0  0  0  0  0  0  0  0
    1.9592  -10.6990    4.0179 C   0  0  0  0  0  0  0  0  0  0  0  0
    2.6712  -10.1926    2.9072 C   0  0  0  0  0  0  0  0  0  0  0  0
    2.4756   -8.8585    2.4904 C   0  0  0  0  0  0  0  0  0  0  0  0
    1.5735   -8.0375    3.1946 C   0  0  0  0  0  0  0  0  0  0  0  0
    1.2680   -6.3661    2.6415 S   0  0  0  0  0  0  0  0  0  0  0  0
    1.2251   -6.3461    1.1699 O   0  0  0  0  0  0  0  0  0  0  0  0
    0.1149   -5.8570    3.4002 O   0  0  0  0  0  0  0  0  0  0  0  0
    2.6310   -5.4280    3.1571 N   0  0  0  0  0  0  0  0  0  0  0  0
    3.9175   -5.3033    2.4406 C   0  0  1  0  0  0  0  0  0  0  0  0
    3.5732   -4.5865    1.2596 O   0  0  0  0  0  0  0  0  0  0  0  0
    4.5135   -4.7033    0.1952 C   0  0  0  0  0  0  0  0  0  0  0  0
    4.6039   -3.4201   -0.6175 C   0  0  0  0  0  0  0  0  0  0  0  0
    4.1992   -3.3755   -1.9668 C   0  0  0  0  0  0  0  0  0  0  0  0
    4.2703   -2.1761   -2.6967 C   0  0  0  0  0  0  0  0  0  0  0  0
    4.7530   -1.0079   -2.0799 C   0  0  0  0  0  0  0  0  0  0  0  0
    5.1849   -1.0519   -0.7422 C   0  0  0  0  0  0  0  0  0  0  0  0
    5.1112   -2.2478   -0.0184 C   0  0  0  0  0  0  0  0  0  0  0  0
    4.7832   -4.4768    3.4572 C   0  0  1  0  0  0  0  0  0  0  0  0
    5.8009   -3.7105    2.8738 O   0  0  0  0  0  0  0  0  0  0  0  0
    3.7690   -3.7305    4.3815 C   0  0  1  0  0  0  0  0  0  0  0  0
    2.9920   -2.5374    3.6571 C   0  0  0  0  0  0  0  0  0  0  0  0
    3.2818   -0.9427    3.7465 C   0  0  2  0  0  0  0  0  0  0  0  0
    4.7625   -0.8018    3.7965 C   0  0  0  0  0  0  0  0  0  0  0  0
    5.1400   -1.2311    5.2651 C   0  0  1  0  0  0  0  0  0  0  0  0
    5.7341   -0.1432    5.9547 O   0  0  0  0  0  0  0  0  0  0  0  0
    4.0643   -1.9950    6.1963 C   0  0  1  0  0  0  0  0  0  0  0  0
    2.5385   -1.6136    6.5813 C   0  0  1  0  0  0  0  0  0  0  0  0
    1.3211   -1.1164    5.6419 C   0  0  0  0  0  0  0  0  0  0  0  0
    1.5931   -0.0261    4.5528 C   0  0  1  0  0  0  0  0  0  0  0  0
    2.9696    0.3282    4.6995 C   0  0  0  0  0  0  0  0  0  0  0  0
    2.0613   -0.2399    3.0383 C   0  0  0  0  0  0  0  0  0  0  0  0
    2.3714    0.9480    2.0763 C   0  0  0  0  0  0  0  0  0  0  0  0
    1.0043   -1.0218    2.2312 C   0  0  0  0  0  0  0  0  0  0  0  0
    2.0608   -2.8085    7.1751 O   0  0  0  0  0  0  0  0  0  0  0  0
    2.7088   -3.9395    6.6055 C   0  0  1  0  0  0  0  0  0  0  0  0
    1.8314   -4.6924    5.5751 C   0  0  0  0  0  0  0  0  0  0  0  0
    2.8960   -4.9883    4.5265 C   0  0  1  0  0  0  0  0  0  0  0  0
    4.0152   -3.4771    5.8876 C   0  0  1  0  0  0  0  0  0  0  0  0
    5.2507   -4.2249    6.4623 C   0  0  0  0  0  0  0  0  0  0  0  0
    0.8424   -8.5495    4.2897 C   0  0  0  0  0  0  0  0  0  0  0  0
    1.0382   -9.8814    4.7021 C   0  0  0  0  0  0  0  0  0  0  0  0
    2.8712  -12.6491    3.8379 H   0  0  0  0  0  0  0  0  0  0  0  0
    1.2320  -12.6580    4.5103 H   0  0  0  0  0  0  0  0  0  0  0  0
    2.5996  -12.1243    5.4950 H   0  0  0  0  0  0  0  0  0  0  0  0
    3.3637  -10.8270    2.3704 H   0  0  0  0  0  0  0  0  0  0  0  0
    2.9965   -8.4752    1.6277 H   0  0  0  0  0  0  0  0  0  0  0  0
    4.3348   -6.2893    2.2316 H   0  0  0  0  0  0  0  0  0  0  0  0
    5.5129   -4.9191    0.5706 H   0  0  0  0  0  0  0  0  0  0  0  0
    4.2433   -5.5508   -0.4365 H   0  0  0  0  0  0  0  0  0  0  0  0
    3.8150   -4.2530   -2.4491 H   0  0  0  0  0  0  0  0  0  0  0  0
    3.9321   -2.1481   -3.7208 H   0  0  0  0  0  0  0  0  0  0  0  0
    4.7841   -0.0741   -2.6279 H   0  0  0  0  0  0  0  0  0  0  0  0
    5.5503   -0.1674   -0.2518 H   0  0  0  0  0  0  0  0  0  0  0  0
    5.4420   -2.2412    1.0055 H   0  0  0  0  0  0  0  0  0  0  0  0
    5.3453   -5.2072    4.0449 H   0  0  0  0  0  0  0  0  0  0  0  0
    6.3234   -4.2654    2.3173 H   0  0  0  0  0  0  0  0  0  0  0  0
    3.0970   -2.7405    2.5975 H   0  0  0  0  0  0  0  0  0  0  0  0
    1.9475   -2.7641    3.7804 H   0  0  0  0  0  0  0  0  0  0  0  0
    5.2534   -1.3871    3.0322 H   0  0  0  0  0  0  0  0  0  0  0  0
    5.0836    0.2204    3.5906 H   0  0  0  0  0  0  0  0  0  0  0  0
    5.9659   -1.9255    5.1616 H   0  0  0  0  0  0  0  0  0  0  0  0
    5.0777    0.5218    6.0982 H   0  0  0  0  0  0  0  0  0  0  0  0
    4.5456   -1.9450    7.1719 H   0  0  0  0  0  0  0  0  0  0  0  0
    2.6059   -0.8729    7.3779 H   0  0  0  0  0  0  0  0  0  0  0  0
    0.7632   -1.9495    5.2243 H   0  0  0  0  0  0  0  0  0  0  0  0
    0.5853   -0.7084    6.3342 H   0  0  0  0  0  0  0  0  0  0  0  0
    0.9437    0.8392    4.6493 H   0  0  0  0  0  0  0  0  0  0  0  0
    3.3097    0.4327    5.7241 H   0  0  0  0  0  0  0  0  0  0  0  0
    3.2210    1.3201    4.3229 H   0  0  0  0  0  0  0  0  0  0  0  0
    1.5695    1.6918    2.0681 H   0  0  0  0  0  0  0  0  0  0  0  0
    2.4945    0.5970    1.0514 H   0  0  0  0  0  0  0  0  0  0  0  0
    3.3015    1.4717    2.2873 H   0  0  0  0  0  0  0  0  0  0  0  0
    0.2758   -0.3496    1.7685 H   0  0  0  0  0  0  0  0  0  0  0  0
    0.4092   -1.6840    2.8579 H   0  0  0  0  0  0  0  0  0  0  0  0
    1.4486   -1.6095    1.4264 H   0  0  0  0  0  0  0  0  0  0  0  0
    2.9513   -4.6101    7.4320 H   0  0  0  0  0  0  0  0  0  0  0  0
    1.4089   -5.6008    6.0083 H   0  0  0  0  0  0  0  0  0  0  0  0
    1.0059   -4.0965    5.1974 H   0  0  0  0  0  0  0  0  0  0  0  0
    3.4598   -5.8096    4.9742 H   0  0  0  0  0  0  0  0  0  0  0  0
    5.3926   -4.0112    7.5210 H   0  0  0  0  0  0  0  0  0  0  0  0
    6.1716   -3.9518    5.9503 H   0  0  0  0  0  0  0  0  0  0  0  0
    5.1478   -5.3052    6.3800 H   0  0  0  0  0  0  0  0  0  0  0  0
    0.1168   -7.9422    4.8073 H   0  0  0  0  0  0  0  0  0  0  0  0
    0.4793  -10.2813    5.5404 H   0  0  0  0  0  0  0  0  0  0  0  0
  1  2  1  0
  1 43  1  0
  1 44  1  0
  1 45  1  0
  2 42  2  0
  2  3  1  0
  3  4  2  0
  3 46  1  0
  4  5  1  0
  4 47  1  0
  5  6  1  0
  5 41  2  0
  6  7  2  0
  6  8  2  0
  6  9  1  0
  9 38  1  0
  9 10  1  0
 10 11  1  0
 10 19  1  0
 10 48  1  6
 11 12  1  0
 12 13  1  0
 12 49  1  0
 12 50  1  0
 13 18  1  0
 13 14  2  0
 14 15  1  0
 14 51  1  0
 15 16  2  0
 15 52  1  0
 16 17  1  0
 16 53  1  0
 17 18  2  0
 17 54  1  0
 18 55  1  0
 19 20  1  0
 19 21  1  0
 19 56  1  1
 20 57  1  0
 21 38  1  0
 21 39  1  0
 21 22  1  6
 23 22  1  1
 22 58  1  0
 22 59  1  0
 23 31  1  0
 23 32  1  0
 23 24  1  0
 24 25  1  0
 24 60  1  0
 24 61  1  0
 25 26  1  0
 25 27  1  0
 25 62  1  6
 26 63  1  0
 27 39  1  0
 27 28  1  0
 27 64  1  1
 28 29  1  0
 28 35  1  0
 28 65  1  1
 29 30  1  0
 29 66  1  0
 29 67  1  0
 30 31  1  0
 30 32  1  0
 30 68  1  6
 31 69  1  0
 31 70  1  0
 32 33  1  0
 32 34  1  0
 33 71  1  0
 33 72  1  0
 33 73  1  0
 34 74  1  0
 34 75  1  0
 34 76  1  0
 35 36  1  0
 36 37  1  0
 36 39  1  0
 36 77  1  1
 37 38  1  0
 37 78  1  0
 37 79  1  0
 38 80  1  1
 39 40  1  1
 40 81  1  0
 40 82  1  0
 40 83  1  0
 41 42  1  0
 41 84  1  0
 42 85  1  0
M  END
>  <i_m_ct_stereo_status>  (298) 
1

>  <s_m_source_file>  (298) 
/var/tmp/pbs.5076255.sched01/tmp7yh4k8o6/114t33l0ocj.sdf

>  <i_m_source_file_index>  (298) 
29

>  <i_lp_mmshare_version>  (298) 
48012

>  <i_f3d_flags>  (298) 
0

>  <s_epik_input>  (298) 
W2NIXTFbY0hdW2NIXVtjSF1bY0hdYzFbQ0gyXU9bQ0BASF0oW0NASF0yW09IXSlOKFMoPU8pKD1PKWMoW2NIXVtjSF0zKVtjSF1bY0hdYzNbQ0gzXSlbQ0BASF0oW0NAQF0yNDUpW0NIMl1bQ0BIXTZbQ0BdNShbQ0gzXSlbQ0BASF03W0NASF0oTzYpW0NIMl1bQ0BIXThbQ0gyXUMoW0NIMl00KShDOChbQ0gzXSlbQ0gzXSlbQ0gyXVtDQEhdN1tPSF0=

>  <s_epik_cmdline>  (298) 
J2VwaWtfcHl0aG9uJywgJy1waHQnLCAnMi4wJywgJy1waCcsICc3LjAnLCAnLXRuJywgJzgnLCAnLW1hJywgJzIwMCcsICctaW1hZScsICc8aW5maWxlLm1hZT4nLCAnLW9tYWUnLCAnPG91dGZpbGUubWFlPic=

>  <r_lp_tautomer_probability>  (298) 
1

>  <r_epik_Ionization_Penalty>  (298) 
3.36297e-06

>  <r_epik_Ionization_Penalty_Charging>  (298) 
0

>  <r_epik_Ionization_Penalty_Neutral>  (298) 
3.36297e-06

>  <r_epik_State_Penalty>  (298) 
-0

>  <r_epik_Charging_Adjusted_Penalty>  (298) 
0

>  <i_epik_Tot_Q>  (298) 
0

>  <i_epik_Tot_abs_Q>  (298) 
0

>  <s_epik_Chemistry_Notes>  (298) 
This compound contains an acetal/aminal-like group ( X-CH(R)-Y where X, Y are N, S, or O) that may be acid/base labile, releasing an aldehyde.

>  <s_lp_Force_Field>  (298) 
OPLS3e

>  <r_lp_Energy>  (298) 
203.885

>  <b_lp_Chiralities_Consistent>  (298) 
1

>  <s_lp_Variant>  (298) 
106:0-1

>  <s_i_glide_gridfile>  (298) 
pfpi4k_grid

>  <i_i_glide_lignum>  (298) 
29

>  <i_i_glide_rotatable_bonds>  (298) 
7

>  <r_i_docking_score>  (298) 
-2.38888

>  <r_i_glide_ligand_efficiency>  (298) 
-0.0568781

>  <r_i_glide_ligand_efficiency_sa>  (298) 
-0.19771

>  <r_i_glide_ligand_efficiency_ln>  (298) 
-0.504231

>  <r_i_glide_gscore>  (298) 
-2.38888

>  <r_i_glide_lipo>  (298) 
-0.269091

>  <r_i_glide_hbond>  (298) 
0

>  <r_i_glide_metal>  (298) 
-0

>  <r_i_glide_rewards>  (298) 
0

>  <r_i_glide_evdw>  (298) 
-28.0257

>  <r_i_glide_ecoul>  (298) 
-4.83054

>  <r_i_glide_erotb>  (298) 
0.185827

>  <r_i_glide_esite>  (298) 
-0.179748

>  <r_i_glide_emodel>  (298) 
-36.0423

>  <r_i_glide_energy>  (298) 
-32.8563

>  <r_i_glide_einternal>  (298) 
3.71691

>  <r_i_glide_intrahb_reward>  (298) 
-0

>  <i_i_glide_confnum>  (298) 
5

>  <i_i_glide_posenum>  (298) 
25

>  <r_i_glide_eff_state_penalty>  (298) 
0

>  <ligand_id>  (298) 
106

>  <original_smiles>  (298) 
Cc1ccc(S(=O)(=O)N2C(OCc3ccccc3)C(O)C34CC56CC(O)C7C(CC(C5)C6(C)C)OC(CC23)C74C)cc1

>  <smiles>  (298) 
[H]OC1([H])C([H])([H])C23C([H])([H])C([H])(C([H])([H])C4([H])OC5([H])C([H])([H])C6([H])N(S(=O)(=O)c7c([H])c([H])c(C([H])([H])[H])c([H])c7[H])C([H])(OC([H])([H])c7c([H])c([H])c([H])c([H])c7[H])C([H])(O[H])C6(C2([H])[H])C5(C([H])([H])[H])C41[H])C3(C([H])([H])[H])C([H])([H])[H]

$$$$
106:0:2
     RDKit          3D

 85 92  0  0  1  0  0  0  0  0999 V2000
    2.5672  -12.1747    4.8019 C   0  0  0  0  0  0  0  0  0  0  0  0
    2.2536  -10.7454    4.4394 C   0  0  0  0  0  0  0  0  0  0  0  0
    2.4958   -9.7157    5.3714 C   0  0  0  0  0  0  0  0  0  0  0  0
    2.1856   -8.3828    5.0450 C   0  0  0  0  0  0  0  0  0  0  0  0
    1.6647   -8.0776    3.7707 C   0  0  0  0  0  0  0  0  0  0  0  0
    1.2779   -6.4002    3.2961 S   0  0  0  0  0  0  0  0  0  0  0  0
    1.8806   -6.1488    1.9799 O   0  0  0  0  0  0  0  0  0  0  0  0
   -0.1742   -6.2560    3.4581 O   0  0  0  0  0  0  0  0  0  0  0  0
    2.0865   -5.3509    4.4461 N   0  0  0  0  0  0  0  0  0  0  0  0
    3.5440   -5.3305    4.7322 C   0  0  1  0  0  0  0  0  0  0  0  0
    4.1479   -4.8619    3.5354 O   0  0  0  0  0  0  0  0  0  0  0  0
    5.4695   -5.3602    3.3433 C   0  0  0  0  0  0  0  0  0  0  0  0
    5.4853   -6.7671    2.7691 C   0  0  0  0  0  0  0  0  0  0  0  0
    5.9473   -7.8566    3.5374 C   0  0  0  0  0  0  0  0  0  0  0  0
    5.9285   -9.1574    3.0006 C   0  0  0  0  0  0  0  0  0  0  0  0
    5.4494   -9.3720    1.6935 C   0  0  0  0  0  0  0  0  0  0  0  0
    4.9989   -8.2849    0.9203 C   0  0  0  0  0  0  0  0  0  0  0  0
    5.0236   -6.9848    1.4560 C   0  0  0  0  0  0  0  0  0  0  0  0
    3.6663   -4.3443    5.9416 C   0  0  1  0  0  0  0  0  0  0  0  0
    4.9208   -3.7172    6.0208 O   0  0  0  0  0  0  0  0  0  0  0  0
    2.3851   -3.4588    5.8638 C   0  0  1  0  0  0  0  0  0  0  0  0
    2.4061   -2.4289    4.6450 C   0  0  0  0  0  0  0  0  0  0  0  0
    2.7716   -0.8496    4.6683 C   0  0  2  0  0  0  0  0  0  0  0  0
    3.8851   -0.7034    5.6474 C   0  0  0  0  0  0  0  0  0  0  0  0
    3.1840   -0.8436    7.0522 C   0  0  1  0  0  0  0  0  0  0  0  0
    3.3164    0.3631    7.7842 O   0  0  0  0  0  0  0  0  0  0  0  0
    1.6668   -1.4118    7.1522 C   0  0  1  0  0  0  0  0  0  0  0  0
    0.3096   -0.9651    6.3790 C   0  0  1  0  0  0  0  0  0  0  0  0
    0.0512   -0.6611    4.8115 C   0  0  0  0  0  0  0  0  0  0  0  0
    1.0923    0.1992    4.0224 C   0  0  1  0  0  0  0  0  0  0  0  0
    2.0813    0.5756    4.9838 C   0  0  0  0  0  0  0  0  0  0  0  0
    2.3924   -0.3054    3.2392 C   0  0  0  0  0  0  0  0  0  0  0  0
    3.3936    0.6787    2.5606 C   0  0  0  0  0  0  0  0  0  0  0  0
    2.0142   -1.2290    2.0581 C   0  0  0  0  0  0  0  0  0  0  0  0
   -0.5844   -2.0204    6.6951 O   0  0  0  0  0  0  0  0  0  0  0  0
    0.1312   -3.2391    6.8519 C   0  0  1  0  0  0  0  0  0  0  0  0
    0.0365   -4.1746    5.6244 C   0  0  0  0  0  0  0  0  0  0  0  0
    1.4728   -4.6754    5.5867 C   0  0  1  0  0  0  0  0  0  0  0  0
    1.6368   -2.9238    7.1067 C   0  0  1  0  0  0  0  0  0  0  0  0
    2.1048   -3.5476    8.4491 C   0  0  0  0  0  0  0  0  0  0  0  0
    1.4097   -9.1074    2.8408 C   0  0  0  0  0  0  0  0  0  0  0  0
    1.6948  -10.4443    3.1833 C   0  0  0  0  0  0  0  0  0  0  0  0
    3.0469  -12.2499    5.7734 H   0  0  0  0  0  0  0  0  0  0  0  0
    3.2209  -12.6220    4.0553 H   0  0  0  0  0  0  0  0  0  0  0  0
    1.6362  -12.7299    4.8588 H   0  0  0  0  0  0  0  0  0  0  0  0
    2.9108   -9.9494    6.3432 H   0  0  0  0  0  0  0  0  0  0  0  0
    2.3411   -7.6205    5.7876 H   0  0  0  0  0  0  0  0  0  0  0  0
    3.9087   -6.3156    5.0063 H   0  0  0  0  0  0  0  0  0  0  0  0
    5.9696   -4.6965    2.6387 H   0  0  0  0  0  0  0  0  0  0  0  0
    6.0529   -5.3144    4.2653 H   0  0  0  0  0  0  0  0  0  0  0  0
    6.3074   -7.6934    4.5410 H   0  0  0  0  0  0  0  0  0  0  0  0
    6.2633   -9.9904    3.5972 H   0  0  0  0  0  0  0  0  0  0  0  0
    5.4150  -10.3709    1.2861 H   0  0  0  0  0  0  0  0  0  0  0  0
    4.6223   -8.4460   -0.0758 H   0  0  0  0  0  0  0  0  0  0  0  0
    4.6775   -6.1513    0.8675 H   0  0  0  0  0  0  0  0  0  0  0  0
    3.6326   -4.9558    6.8471 H   0  0  0  0  0  0  0  0  0  0  0  0
    5.0377   -3.2302    5.2160 H   0  0  0  0  0  0  0  0  0  0  0  0
    3.1380   -2.8255    3.9518 H   0  0  0  0  0  0  0  0  0  0  0  0
    1.5112   -2.6295    4.0822 H   0  0  0  0  0  0  0  0  0  0  0  0
    4.6787   -1.4180    5.4743 H   0  0  0  0  0  0  0  0  0  0  0  0
    4.3829    0.2648    5.5581 H   0  0  0  0  0  0  0  0  0  0  0  0
    3.8234   -1.5211    7.6178 H   0  0  0  0  0  0  0  0  0  0  0  0
    2.9131    1.0666    7.2939 H   0  0  0  0  0  0  0  0  0  0  0  0
    1.4081   -1.1719    8.1834 H   0  0  0  0  0  0  0  0  0  0  0  0
   -0.0588   -0.0840    6.9036 H   0  0  0  0  0  0  0  0  0  0  0  0
   -0.2087   -1.5577    4.2575 H   0  0  0  0  0  0  0  0  0  0  0  0
   -0.8978   -0.1282    4.7812 H   0  0  0  0  0  0  0  0  0  0  0  0
    0.6471    1.0654    3.5393 H   0  0  0  0  0  0  0  0  0  0  0  0
    1.6974    0.8797    5.9498 H   0  0  0  0  0  0  0  0  0  0  0  0
    2.6307    1.4795    4.7276 H   0  0  0  0  0  0  0  0  0  0  0  0
    2.8812    1.4068    1.9257 H   0  0  0  0  0  0  0  0  0  0  0  0
    4.1044    0.1442    1.9301 H   0  0  0  0  0  0  0  0  0  0  0  0
    4.0199    1.2317    3.2590 H   0  0  0  0  0  0  0  0  0  0  0  0
    1.8536   -0.6451    1.1498 H   0  0  0  0  0  0  0  0  0  0  0  0
    1.0726   -1.7564    2.2114 H   0  0  0  0  0  0  0  0  0  0  0  0
    2.7941   -1.9610    1.8376 H   0  0  0  0  0  0  0  0  0  0  0  0
   -0.3006   -3.7440    7.7167 H   0  0  0  0  0  0  0  0  0  0  0  0
   -0.6729   -4.9840    5.8021 H   0  0  0  0  0  0  0  0  0  0  0  0
   -0.2559   -3.6688    4.7088 H   0  0  0  0  0  0  0  0  0  0  0  0
    1.5193   -5.3959    6.4075 H   0  0  0  0  0  0  0  0  0  0  0  0
    1.5571   -3.1338    9.2957 H   0  0  0  0  0  0  0  0  0  0  0  0
    3.1642   -3.3757    8.6317 H   0  0  0  0  0  0  0  0  0  0  0  0
    1.9446   -4.6240    8.4760 H   0  0  0  0  0  0  0  0  0  0  0  0
    0.9810   -8.8782    1.8757 H   0  0  0  0  0  0  0  0  0  0  0  0
    1.4895  -11.2392    2.4896 H   0  0  0  0  0  0  0  0  0  0  0  0
  1  2  1  0
  1 43  1  0
  1 44  1  0
  1 45  1  0
  2 42  2  0
  2  3  1  0
  3  4  2  0
  3 46  1  0
  4  5  1  0
  4 47  1  0
  5  6  1  0
  5 41  2  0
  6  7  2  0
  6  8  2  0
  6  9  1  0
  9 38  1  0
  9 10  1  0
 10 11  1  0
 10 19  1  0
 10 48  1  1
 11 12  1  0
 12 13  1  0
 12 49  1  0
 12 50  1  0
 13 18  1  0
 13 14  2  0
 14 15  1  0
 14 51  1  0
 15 16  2  0
 15 52  1  0
 16 17  1  0
 16 53  1  0
 17 18  2  0
 17 54  1  0
 18 55  1  0
 19 20  1  0
 19 21  1  0
 19 56  1  1
 20 57  1  0
 21 38  1  0
 21 39  1  0
 21 22  1  6
 23 22  1  1
 22 58  1  0
 22 59  1  0
 23 31  1  0
 23 32  1  0
 23 24  1  0
 24 25  1  0
 24 60  1  0
 24 61  1  0
 25 26  1  0
 25 27  1  0
 25 62  1  1
 26 63  1  0
 27 39  1  0
 27 28  1  0
 27 64  1  1
 28 29  1  0
 28 35  1  0
 28 65  1  1
 29 30  1  0
 29 66  1  0
 29 67  1  0
 30 31  1  0
 30 32  1  0
 30 68  1  6
 31 69  1  0
 31 70  1  0
 32 33  1  0
 32 34  1  0
 33 71  1  0
 33 72  1  0
 33 73  1  0
 34 74  1  0
 34 75  1  0
 34 76  1  0
 35 36  1  0
 36 37  1  0
 36 39  1  0
 36 77  1  1
 37 38  1  0
 37 78  1  0
 37 79  1  0
 38 80  1  1
 39 40  1  1
 40 81  1  0
 40 82  1  0
 40 83  1  0
 41 42  1  0
 41 84  1  0
 42 85  1  0
M  END
>  <i_m_ct_stereo_status>  (299) 
1

>  <s_m_source_file>  (299) 
/var/tmp/pbs.5076255.sched01/tmp7yh4k8o6/114t33l0ocj.sdf

>  <i_m_source_file_index>  (299) 
29

>  <i_lp_mmshare_version>  (299) 
48012

>  <i_f3d_flags>  (299) 
0

>  <s_epik_input>  (299) 
W2NIXTFbY0hdW2NIXVtjSF1bY0hdYzFbQ0gyXU9bQ0BASF0oW0NASF0yW09IXSlOKFMoPU8pKD1PKWMoW2NIXVtjSF0zKVtjSF1bY0hdYzNbQ0gzXSlbQ0BASF0oW0NAQF0yNDUpW0NIMl1bQ0BIXTZbQ0BdNShbQ0gzXSlbQ0BASF03W0NASF0oTzYpW0NIMl1bQ0BIXThbQ0gyXUMoW0NIMl00KShDOChbQ0gzXSlbQ0gzXSlbQ0gyXVtDQEhdN1tPSF0=

>  <s_epik_cmdline>  (299) 
J2VwaWtfcHl0aG9uJywgJy1waHQnLCAnMi4wJywgJy1waCcsICc3LjAnLCAnLXRuJywgJzgnLCAnLW1hJywgJzIwMCcsICctaW1hZScsICc8aW5maWxlLm1hZT4nLCAnLW9tYWUnLCAnPG91dGZpbGUubWFlPic=

>  <r_lp_tautomer_probability>  (299) 
1

>  <r_epik_Ionization_Penalty>  (299) 
3.36297e-06

>  <r_epik_Ionization_Penalty_Charging>  (299) 
0

>  <r_epik_Ionization_Penalty_Neutral>  (299) 
3.36297e-06

>  <r_epik_State_Penalty>  (299) 
-0

>  <r_epik_Charging_Adjusted_Penalty>  (299) 
0

>  <i_epik_Tot_Q>  (299) 
0

>  <i_epik_Tot_abs_Q>  (299) 
0

>  <s_epik_Chemistry_Notes>  (299) 
This compound contains an acetal/aminal-like group ( X-CH(R)-Y where X, Y are N, S, or O) that may be acid/base labile, releasing an aldehyde.

>  <s_lp_Force_Field>  (299) 
OPLS3e

>  <r_lp_Energy>  (299) 
203.885

>  <b_lp_Chiralities_Consistent>  (299) 
1

>  <s_lp_Variant>  (299) 
106:0-1

>  <s_i_glide_gridfile>  (299) 
pfpi4k_grid

>  <i_i_glide_lignum>  (299) 
29

>  <i_i_glide_rotatable_bonds>  (299) 
7

>  <r_i_docking_score>  (299) 
-2.16076

>  <r_i_glide_ligand_efficiency>  (299) 
-0.0514466

>  <r_i_glide_ligand_efficiency_sa>  (299) 
-0.17883

>  <r_i_glide_ligand_efficiency_ln>  (299) 
-0.45608

>  <r_i_glide_gscore>  (299) 
-2.16076

>  <r_i_glide_lipo>  (299) 
-0.249415

>  <r_i_glide_hbond>  (299) 
0

>  <r_i_glide_metal>  (299) 
-0

>  <r_i_glide_rewards>  (299) 
0

>  <r_i_glide_evdw>  (299) 
-25.3229

>  <r_i_glide_ecoul>  (299) 
-4.6752

>  <r_i_glide_erotb>  (299) 
0.185827

>  <r_i_glide_esite>  (299) 
-0.129741

>  <r_i_glide_emodel>  (299) 
-32.3144

>  <r_i_glide_energy>  (299) 
-29.9981

>  <r_i_glide_einternal>  (299) 
4.53055

>  <r_i_glide_intrahb_reward>  (299) 
-0

>  <i_i_glide_confnum>  (299) 
3

>  <i_i_glide_posenum>  (299) 
5

>  <r_i_glide_eff_state_penalty>  (299) 
0

>  <ligand_id>  (299) 
106

>  <original_smiles>  (299) 
Cc1ccc(S(=O)(=O)N2C(OCc3ccccc3)C(O)C34CC56CC(O)C7C(CC(C5)C6(C)C)OC(CC23)C74C)cc1

>  <smiles>  (299) 
[H]OC1([H])C([H])([H])C23C([H])([H])C([H])(C([H])([H])C4([H])OC5([H])C([H])([H])C6([H])N(S(=O)(=O)c7c([H])c([H])c(C([H])([H])[H])c([H])c7[H])C([H])(OC([H])([H])c7c([H])c([H])c([H])c([H])c7[H])C([H])(O[H])C6(C2([H])[H])C5(C([H])([H])[H])C41[H])C3(C([H])([H])[H])C([H])([H])[H]

$$$$
107:0:0
     RDKit          3D

 32 33  0  0  1  0  0  0  0  0999 V2000
   -1.3867   -9.4739    2.4899 C   0  0  0  0  0  0  0  0  0  0  0  0
   -0.9663   -8.1188    1.9241 C   0  0  0  0  0  0  0  0  0  0  0  0
    0.3236   -7.7699    2.4065 O   0  0  0  0  0  0  0  0  0  0  0  0
    1.0701   -6.8584    1.7386 C   0  0  0  0  0  0  0  0  0  0  0  0
    0.7143   -6.2748    0.7127 O   0  0  0  0  0  0  0  0  0  0  0  0
    2.4208   -6.5888    2.4275 C   0  0  0  0  0  0  0  0  0  0  0  0
    3.1922   -5.5032    1.7954 N   0  0  0  0  0  0  0  0  0  0  0  0
    2.9188   -4.2025    2.0236 C   0  0  0  0  0  0  0  0  0  0  0  0
    2.0201   -3.8071    2.7707 O   0  0  0  0  0  0  0  0  0  0  0  0
    3.9447   -3.0889    1.1517 S   0  0  0  0  0  0  0  0  0  0  0  0
    4.8689   -4.4423    0.3926 C   0  0  0  0  0  0  0  0  0  0  0  0
    6.3802   -4.2770    0.6413 C   0  0  0  0  0  0  0  0  0  0  0  0
    6.8994   -3.4187   -0.5280 C   0  0  0  0  0  0  0  0  0  0  0  0
    5.7725   -3.3644   -1.5715 C   0  0  0  0  0  0  0  0  0  0  0  0
    4.7491   -4.4049   -1.1277 C   0  0  0  0  0  0  0  0  0  0  0  0
    4.2303   -5.7309    0.9605 C   0  0  0  0  0  0  0  0  0  0  0  0
    4.6396   -6.8542    0.6312 O   0  0  0  0  0  0  0  0  0  0  0  0
   -2.3760   -9.7566    2.1331 H   0  0  0  0  0  0  0  0  0  0  0  0
   -1.4185   -9.4554    3.5789 H   0  0  0  0  0  0  0  0  0  0  0  0
   -0.6901  -10.2556    2.1864 H   0  0  0  0  0  0  0  0  0  0  0  0
   -0.9796   -8.1656    0.8345 H   0  0  0  0  0  0  0  0  0  0  0  0
   -1.6856   -7.3528    2.2166 H   0  0  0  0  0  0  0  0  0  0  0  0
    2.2364   -6.3199    3.4684 H   0  0  0  0  0  0  0  0  0  0  0  0
    3.0052   -7.5124    2.4520 H   0  0  0  0  0  0  0  0  0  0  0  0
    6.5995   -3.8153    1.6077 H   0  0  0  0  0  0  0  0  0  0  0  0
    6.8829   -5.2451    0.6352 H   0  0  0  0  0  0  0  0  0  0  0  0
    7.1473   -2.4121   -0.1894 H   0  0  0  0  0  0  0  0  0  0  0  0
    7.8080   -3.8520   -0.9469 H   0  0  0  0  0  0  0  0  0  0  0  0
    5.3015   -2.3811   -1.5558 H   0  0  0  0  0  0  0  0  0  0  0  0
    6.1266   -3.5475   -2.5858 H   0  0  0  0  0  0  0  0  0  0  0  0
    5.0163   -5.3746   -1.5453 H   0  0  0  0  0  0  0  0  0  0  0  0
    3.7354   -4.1763   -1.4623 H   0  0  0  0  0  0  0  0  0  0  0  0
  1  2  1  0
  1 18  1  0
  1 19  1  0
  1 20  1  0
  2  3  1  0
  2 21  1  0
  2 22  1  0
  3  4  1  0
  4  5  2  0
  4  6  1  0
  6  7  1  0
  6 23  1  0
  6 24  1  0
  7 16  1  0
  7  8  1  0
  8  9  2  0
  8 10  1  0
 10 11  1  0
 11 15  1  0
 11 12  1  0
 11 16  1  0
 12 13  1  0
 12 25  1  0
 12 26  1  0
 13 14  1  0
 13 27  1  0
 13 28  1  0
 14 15  1  0
 14 29  1  0
 14 30  1  0
 15 31  1  0
 15 32  1  0
 16 17  2  0
M  END
>  <i_m_ct_stereo_status>  (300) 
1

>  <s_m_source_file>  (300) 
/var/tmp/pbs.5076255.sched01/tmp7yh4k8o6/114t33l0ocj.sdf

>  <i_m_source_file_index>  (300) 
30

>  <i_lp_mmshare_version>  (300) 
48012

>  <i_f3d_flags>  (300) 
0

>  <s_epik_input>  (300) 
W0NIM11bQ0gyXU9DKD1PKVtDSDJdTihDMT1PKUMoPU8pU0MxMltDSDJdW0NIMl1bQ0gyXVtDSDJdMg==

>  <s_epik_cmdline>  (300) 
J2VwaWtfcHl0aG9uJywgJy1waHQnLCAnMi4wJywgJy1waCcsICc3LjAnLCAnLXRuJywgJzgnLCAnLW1hJywgJzIwMCcsICctaW1hZScsICc8aW5maWxlLm1hZT4nLCAnLW9tYWUnLCAnPG91dGZpbGUubWFlPic=

>  <r_lp_tautomer_probability>  (300) 
1

>  <r_epik_Ionization_Penalty>  (300) 
4.60454e-15

>  <r_epik_Ionization_Penalty_Charging>  (300) 
0

>  <r_epik_Ionization_Penalty_Neutral>  (300) 
4.60454e-15

>  <r_epik_State_Penalty>  (300) 
-0

>  <r_epik_Charging_Adjusted_Penalty>  (300) 
0

>  <i_epik_Tot_Q>  (300) 
0

>  <i_epik_Tot_abs_Q>  (300) 
0

>  <s_epik_Chemistry_Notes>  (300) 
This compound has an ester and may undergo hydrolysis at high or low pH.

>  <s_lp_Force_Field>  (300) 
OPLS3e

>  <r_lp_Energy>  (300) 
15.2535

>  <b_lp_Chiralities_Consistent>  (300) 
1

>  <s_lp_Variant>  (300) 
107:0-1

>  <s_i_glide_gridfile>  (300) 
pfpi4k_grid

>  <i_i_glide_lignum>  (300) 
30

>  <i_i_glide_rotatable_bonds>  (300) 
4

>  <r_i_docking_score>  (300) 
-3.62307

>  <r_i_glide_ligand_efficiency>  (300) 
-0.213122

>  <r_i_glide_ligand_efficiency_sa>  (300) 
-0.547997

>  <r_i_glide_ligand_efficiency_ln>  (300) 
-0.945179

>  <r_i_glide_gscore>  (300) 
-3.62307

>  <r_i_glide_lipo>  (300) 
-0.650167

>  <r_i_glide_hbond>  (300) 
-0.16

>  <r_i_glide_metal>  (300) 
-0

>  <r_i_glide_rewards>  (300) 
-1.74888

>  <r_i_glide_evdw>  (300) 
-21.5138

>  <r_i_glide_ecoul>  (300) 
-3.05695

>  <r_i_glide_erotb>  (300) 
0.53297

>  <r_i_glide_esite>  (300) 
-0.0627645

>  <r_i_glide_emodel>  (300) 
-30.6556

>  <r_i_glide_energy>  (300) 
-24.5707

>  <r_i_glide_einternal>  (300) 
1.00048

>  <r_i_glide_intrahb_reward>  (300) 
-0

>  <i_i_glide_confnum>  (300) 
4

>  <i_i_glide_posenum>  (300) 
3

>  <r_i_glide_eff_state_penalty>  (300) 
0

>  <ligand_id>  (300) 
107

>  <original_smiles>  (300) 
CCOC(=O)CN1C(=O)SC2(CCCC2)C1=O

>  <smiles>  (300) 
[H]C([H])(C(=O)OC([H])([H])C([H])([H])[H])N1C(=O)SC2(C1=O)C([H])([H])C([H])([H])C([H])([H])C2([H])[H]

$$$$
107:0:1
     RDKit          3D

 32 33  0  0  1  0  0  0  0  0999 V2000
    0.2765   -7.7902    6.7054 C   0  0  0  0  0  0  0  0  0  0  0  0
   -0.2727   -9.0453    6.0187 C   0  0  0  0  0  0  0  0  0  0  0  0
    0.1489   -9.1012    4.6659 O   0  0  0  0  0  0  0  0  0  0  0  0
   -0.6051   -8.5605    3.6890 C   0  0  0  0  0  0  0  0  0  0  0  0
   -1.6428   -7.9156    3.8451 O   0  0  0  0  0  0  0  0  0  0  0  0
   -0.0325   -8.8080    2.2918 C   0  0  0  0  0  0  0  0  0  0  0  0
    1.2506   -8.1256    2.0946 N   0  0  0  0  0  0  0  0  0  0  0  0
    1.3630   -6.9560    1.4595 C   0  0  0  0  0  0  0  0  0  0  0  0
    0.4058   -6.3149    1.0082 O   0  0  0  0  0  0  0  0  0  0  0  0
    2.9925   -6.3656    1.2797 S   0  0  0  0  0  0  0  0  0  0  0  0
    3.6665   -7.8161    2.1032 C   0  0  0  0  0  0  0  0  0  0  0  0
    4.5637   -7.4035    3.2838 C   0  0  0  0  0  0  0  0  0  0  0  0
    5.9742   -7.2394    2.6912 C   0  0  0  0  0  0  0  0  0  0  0  0
    5.9327   -7.8477    1.2764 C   0  0  0  0  0  0  0  0  0  0  0  0
    4.6098   -8.5992    1.1867 C   0  0  0  0  0  0  0  0  0  0  0  0
    2.4321   -8.6571    2.4785 C   0  0  0  0  0  0  0  0  0  0  0  0
    2.5394   -9.7388    3.0484 O   0  0  0  0  0  0  0  0  0  0  0  0
   -0.0421   -7.7469    7.7468 H   0  0  0  0  0  0  0  0  0  0  0  0
   -0.0778   -6.8873    6.2088 H   0  0  0  0  0  0  0  0  0  0  0  0
    1.3661   -7.7829    6.6879 H   0  0  0  0  0  0  0  0  0  0  0  0
    0.0804   -9.9383    6.5345 H   0  0  0  0  0  0  0  0  0  0  0  0
   -1.3600   -9.0652    6.0765 H   0  0  0  0  0  0  0  0  0  0  0  0
    0.0580   -9.8809    2.1033 H   0  0  0  0  0  0  0  0  0  0  0  0
   -0.7526   -8.4297    1.5659 H   0  0  0  0  0  0  0  0  0  0  0  0
    4.2244   -6.4865    3.7690 H   0  0  0  0  0  0  0  0  0  0  0  0
    4.5814   -8.1761    4.0526 H   0  0  0  0  0  0  0  0  0  0  0  0
    6.2553   -6.1867    2.6330 H   0  0  0  0  0  0  0  0  0  0  0  0
    6.7158   -7.7417    3.3137 H   0  0  0  0  0  0  0  0  0  0  0  0
    5.9268   -7.0473    0.5432 H   0  0  0  0  0  0  0  0  0  0  0  0
    6.7835   -8.4976    1.0746 H   0  0  0  0  0  0  0  0  0  0  0  0
    4.7494   -9.6154    1.5618 H   0  0  0  0  0  0  0  0  0  0  0  0
    4.2354   -8.6830    0.1653 H   0  0  0  0  0  0  0  0  0  0  0  0
  1  2  1  0
  1 18  1  0
  1 19  1  0
  1 20  1  0
  2  3  1  0
  2 21  1  0
  2 22  1  0
  3  4  1  0
  4  5  2  0
  4  6  1  0
  6  7  1  0
  6 23  1  0
  6 24  1  0
  7 16  1  0
  7  8  1  0
  8  9  2  0
  8 10  1  0
 10 11  1  0
 11 15  1  0
 11 12  1  0
 11 16  1  0
 12 13  1  0
 12 25  1  0
 12 26  1  0
 13 14  1  0
 13 27  1  0
 13 28  1  0
 14 15  1  0
 14 29  1  0
 14 30  1  0
 15 31  1  0
 15 32  1  0
 16 17  2  0
M  END
>  <i_m_ct_stereo_status>  (301) 
1

>  <s_m_source_file>  (301) 
/var/tmp/pbs.5076255.sched01/tmp7yh4k8o6/114t33l0ocj.sdf

>  <i_m_source_file_index>  (301) 
30

>  <i_lp_mmshare_version>  (301) 
48012

>  <i_f3d_flags>  (301) 
0

>  <s_epik_input>  (301) 
W0NIM11bQ0gyXU9DKD1PKVtDSDJdTihDMT1PKUMoPU8pU0MxMltDSDJdW0NIMl1bQ0gyXVtDSDJdMg==

>  <s_epik_cmdline>  (301) 
J2VwaWtfcHl0aG9uJywgJy1waHQnLCAnMi4wJywgJy1waCcsICc3LjAnLCAnLXRuJywgJzgnLCAnLW1hJywgJzIwMCcsICctaW1hZScsICc8aW5maWxlLm1hZT4nLCAnLW9tYWUnLCAnPG91dGZpbGUubWFlPic=

>  <r_lp_tautomer_probability>  (301) 
1

>  <r_epik_Ionization_Penalty>  (301) 
4.60454e-15

>  <r_epik_Ionization_Penalty_Charging>  (301) 
0

>  <r_epik_Ionization_Penalty_Neutral>  (301) 
4.60454e-15

>  <r_epik_State_Penalty>  (301) 
-0

>  <r_epik_Charging_Adjusted_Penalty>  (301) 
0

>  <i_epik_Tot_Q>  (301) 
0

>  <i_epik_Tot_abs_Q>  (301) 
0

>  <s_epik_Chemistry_Notes>  (301) 
This compound has an ester and may undergo hydrolysis at high or low pH.

>  <s_lp_Force_Field>  (301) 
OPLS3e

>  <r_lp_Energy>  (301) 
15.2535

>  <b_lp_Chiralities_Consistent>  (301) 
1

>  <s_lp_Variant>  (301) 
107:0-1

>  <s_i_glide_gridfile>  (301) 
pfpi4k_grid

>  <i_i_glide_lignum>  (301) 
30

>  <i_i_glide_rotatable_bonds>  (301) 
4

>  <r_i_docking_score>  (301) 
-3.27465

>  <r_i_glide_ligand_efficiency>  (301) 
-0.192626

>  <r_i_glide_ligand_efficiency_sa>  (301) 
-0.495297

>  <r_i_glide_ligand_efficiency_ln>  (301) 
-0.854283

>  <r_i_glide_gscore>  (301) 
-3.27465

>  <r_i_glide_lipo>  (301) 
-0.14405

>  <r_i_glide_hbond>  (301) 
-0.16

>  <r_i_glide_metal>  (301) 
-0

>  <r_i_glide_rewards>  (301) 
-1.65472

>  <r_i_glide_evdw>  (301) 
-20.7142

>  <r_i_glide_ecoul>  (301) 
-4.40663

>  <r_i_glide_erotb>  (301) 
0.53297

>  <r_i_glide_esite>  (301) 
-0.152142

>  <r_i_glide_emodel>  (301) 
-30.8293

>  <r_i_glide_energy>  (301) 
-25.1208

>  <r_i_glide_einternal>  (301) 
0.245868

>  <r_i_glide_intrahb_reward>  (301) 
-0

>  <i_i_glide_confnum>  (301) 
3

>  <i_i_glide_posenum>  (301) 
2

>  <r_i_glide_eff_state_penalty>  (301) 
0

>  <ligand_id>  (301) 
107

>  <original_smiles>  (301) 
CCOC(=O)CN1C(=O)SC2(CCCC2)C1=O

>  <smiles>  (301) 
[H]C([H])(C(=O)OC([H])([H])C([H])([H])[H])N1C(=O)SC2(C1=O)C([H])([H])C([H])([H])C([H])([H])C2([H])[H]

$$$$
107:0:2
     RDKit          3D

 32 33  0  0  1  0  0  0  0  0999 V2000
    1.3141    2.2225    2.6841 C   0  0  0  0  0  0  0  0  0  0  0  0
    0.8933    0.9995    1.8618 C   0  0  0  0  0  0  0  0  0  0  0  0
    1.9745    0.0743    1.7665 O   0  0  0  0  0  0  0  0  0  0  0  0
    1.9265   -1.1222    2.3941 C   0  0  0  0  0  0  0  0  0  0  0  0
    1.0036   -1.5132    3.1052 O   0  0  0  0  0  0  0  0  0  0  0  0
    3.1835   -1.9887    2.2099 C   0  0  0  0  0  0  0  0  0  0  0  0
    3.6869   -2.0040    0.8245 N   0  0  0  0  0  0  0  0  0  0  0  0
    4.4964   -1.0325    0.3505 C   0  0  0  0  0  0  0  0  0  0  0  0
    4.8986   -0.0851    1.0041 O   0  0  0  0  0  0  0  0  0  0  0  0
    4.9582   -1.2484   -1.3161 S   0  0  0  0  0  0  0  0  0  0  0  0
    4.0352   -2.7886   -1.4474 C   0  0  0  0  0  0  0  0  0  0  0  0
    4.9553   -3.9187   -1.9471 C   0  0  0  0  0  0  0  0  0  0  0  0
    4.8652   -3.8676   -3.4848 C   0  0  0  0  0  0  0  0  0  0  0  0
    3.6965   -2.9352   -3.8345 C   0  0  0  0  0  0  0  0  0  0  0  0
    2.9559   -2.6979   -2.5253 C   0  0  0  0  0  0  0  0  0  0  0  0
    3.4179   -2.9978   -0.0466 C   0  0  0  0  0  0  0  0  0  0  0  0
    2.7084   -3.9905    0.2213 O   0  0  0  0  0  0  0  0  0  0  0  0
    0.4917    2.9348    2.7581 H   0  0  0  0  0  0  0  0  0  0  0  0
    2.1527    2.7409    2.2185 H   0  0  0  0  0  0  0  0  0  0  0  0
    1.6044    1.9394    3.6960 H   0  0  0  0  0  0  0  0  0  0  0  0
    0.0047    0.5463    2.3010 H   0  0  0  0  0  0  0  0  0  0  0  0
    0.6089    1.3133    0.8586 H   0  0  0  0  0  0  0  0  0  0  0  0
    3.9637   -1.6270    2.8717 H   0  0  0  0  0  0  0  0  0  0  0  0
    2.9464   -3.0044    2.5341 H   0  0  0  0  0  0  0  0  0  0  0  0
    5.9865   -3.8165   -1.6033 H   0  0  0  0  0  0  0  0  0  0  0  0
    4.6177   -4.8917   -1.5842 H   0  0  0  0  0  0  0  0  0  0  0  0
    5.7958   -3.4919   -3.9119 H   0  0  0  0  0  0  0  0  0  0  0  0
    4.7013   -4.8668   -3.8926 H   0  0  0  0  0  0  0  0  0  0  0  0
    4.0787   -1.9836   -4.2038 H   0  0  0  0  0  0  0  0  0  0  0  0
    3.0372   -3.3503   -4.5941 H   0  0  0  0  0  0  0  0  0  0  0  0
    2.2168   -3.4888   -2.3819 H   0  0  0  0  0  0  0  0  0  0  0  0
    2.4239   -1.7450   -2.5003 H   0  0  0  0  0  0  0  0  0  0  0  0
  1  2  1  0
  1 18  1  0
  1 19  1  0
  1 20  1  0
  2  3  1  0
  2 21  1  0
  2 22  1  0
  3  4  1  0
  4  5  2  0
  4  6  1  0
  6  7  1  0
  6 23  1  0
  6 24  1  0
  7 16  1  0
  7  8  1  0
  8  9  2  0
  8 10  1  0
 10 11  1  0
 11 15  1  0
 11 12  1  0
 11 16  1  0
 12 13  1  0
 12 25  1  0
 12 26  1  0
 13 14  1  0
 13 27  1  0
 13 28  1  0
 14 15  1  0
 14 29  1  0
 14 30  1  0
 15 31  1  0
 15 32  1  0
 16 17  2  0
M  END
>  <i_m_ct_stereo_status>  (302) 
1

>  <s_m_source_file>  (302) 
/var/tmp/pbs.5076255.sched01/tmp7yh4k8o6/114t33l0ocj.sdf

>  <i_m_source_file_index>  (302) 
30

>  <i_lp_mmshare_version>  (302) 
48012

>  <i_f3d_flags>  (302) 
0

>  <s_epik_input>  (302) 
W0NIM11bQ0gyXU9DKD1PKVtDSDJdTihDMT1PKUMoPU8pU0MxMltDSDJdW0NIMl1bQ0gyXVtDSDJdMg==

>  <s_epik_cmdline>  (302) 
J2VwaWtfcHl0aG9uJywgJy1waHQnLCAnMi4wJywgJy1waCcsICc3LjAnLCAnLXRuJywgJzgnLCAnLW1hJywgJzIwMCcsICctaW1hZScsICc8aW5maWxlLm1hZT4nLCAnLW9tYWUnLCAnPG91dGZpbGUubWFlPic=

>  <r_lp_tautomer_probability>  (302) 
1

>  <r_epik_Ionization_Penalty>  (302) 
4.60454e-15

>  <r_epik_Ionization_Penalty_Charging>  (302) 
0

>  <r_epik_Ionization_Penalty_Neutral>  (302) 
4.60454e-15

>  <r_epik_State_Penalty>  (302) 
-0

>  <r_epik_Charging_Adjusted_Penalty>  (302) 
0

>  <i_epik_Tot_Q>  (302) 
0

>  <i_epik_Tot_abs_Q>  (302) 
0

>  <s_epik_Chemistry_Notes>  (302) 
This compound has an ester and may undergo hydrolysis at high or low pH.

>  <s_lp_Force_Field>  (302) 
OPLS3e

>  <r_lp_Energy>  (302) 
15.2535

>  <b_lp_Chiralities_Consistent>  (302) 
1

>  <s_lp_Variant>  (302) 
107:0-1

>  <s_i_glide_gridfile>  (302) 
pfpi4k_grid

>  <i_i_glide_lignum>  (302) 
30

>  <i_i_glide_rotatable_bonds>  (302) 
4

>  <r_i_docking_score>  (302) 
-2.70323

>  <r_i_glide_ligand_efficiency>  (302) 
-0.159014

>  <r_i_glide_ligand_efficiency_sa>  (302) 
-0.408869

>  <r_i_glide_ligand_efficiency_ln>  (302) 
-0.705213

>  <r_i_glide_gscore>  (302) 
-2.70323

>  <r_i_glide_lipo>  (302) 
-0.15376

>  <r_i_glide_hbond>  (302) 
-0.0572833

>  <r_i_glide_metal>  (302) 
-0

>  <r_i_glide_rewards>  (302) 
-1.69368

>  <r_i_glide_evdw>  (302) 
-25.8479

>  <r_i_glide_ecoul>  (302) 
0.181809

>  <r_i_glide_erotb>  (302) 
0.53297

>  <r_i_glide_esite>  (302) 
-0.0663573

>  <r_i_glide_emodel>  (302) 
-30.0136

>  <r_i_glide_energy>  (302) 
-25.6661

>  <r_i_glide_einternal>  (302) 
0.836399

>  <r_i_glide_intrahb_reward>  (302) 
-0

>  <i_i_glide_confnum>  (302) 
4

>  <i_i_glide_posenum>  (302) 
30

>  <r_i_glide_eff_state_penalty>  (302) 
0

>  <ligand_id>  (302) 
107

>  <original_smiles>  (302) 
CCOC(=O)CN1C(=O)SC2(CCCC2)C1=O

>  <smiles>  (302) 
[H]C([H])(C(=O)OC([H])([H])C([H])([H])[H])N1C(=O)SC2(C1=O)C([H])([H])C([H])([H])C([H])([H])C2([H])[H]

$$$$
108:0:0
     RDKit          3D

 32 34  0  0  1  0  0  0  0  0999 V2000
    6.9356   -3.1783   -0.9728 C   0  0  0  0  0  0  0  0  0  0  0  0
    5.5637   -3.4521   -0.3162 C   0  0  0  0  0  0  0  0  0  0  0  0
    5.4990   -4.9268    0.1338 C   0  0  0  0  0  0  0  0  0  0  0  0
    5.3263   -2.4145    0.8399 C   0  0  2  0  0  0  0  0  0  0  0  0
    4.6632   -2.8302    2.1591 C   0  0  0  0  0  0  0  0  0  0  0  0
    4.5145   -1.5904    3.0836 C   0  0  0  0  0  0  0  0  0  0  0  0
    4.1639   -0.2881    2.3476 C   0  0  0  0  0  0  0  0  0  0  0  0
    4.1160   -0.1788    1.0015 C   0  0  0  0  0  0  0  0  0  0  0  0
    4.4505   -1.3524    0.2348 C   0  0  0  0  0  0  0  0  0  0  0  0
    4.0681   -1.7163   -0.9844 C   0  0  0  0  0  0  0  0  0  0  0  0
    3.4824   -1.0548   -2.1863 C   0  0  0  0  0  0  0  0  0  0  0  0
    4.1695   -1.9159   -3.2423 C   0  0  0  0  0  0  0  0  0  0  0  0
    4.1708   -1.6162   -4.4294 O   0  0  0  0  0  0  0  0  0  0  0  0
    4.7915   -3.0033   -2.6876 O   0  0  0  0  0  0  0  0  0  0  0  0
    4.4335   -3.0899   -1.3449 C   0  0  1  0  0  0  0  0  0  0  0  0
    3.2606   -3.8579   -1.1648 O   0  0  0  0  0  0  0  0  0  0  0  0
    7.7578   -3.3551   -0.2794 H   0  0  0  0  0  0  0  0  0  0  0  0
    7.0215   -2.1551   -1.3351 H   0  0  0  0  0  0  0  0  0  0  0  0
    7.0957   -3.8270   -1.8317 H   0  0  0  0  0  0  0  0  0  0  0  0
    4.5712   -5.1666    0.6514 H   0  0  0  0  0  0  0  0  0  0  0  0
    6.3253   -5.1545    0.8091 H   0  0  0  0  0  0  0  0  0  0  0  0
    5.5782   -5.5982   -0.7174 H   0  0  0  0  0  0  0  0  0  0  0  0
    6.2772   -1.9484    1.0989 H   0  0  0  0  0  0  0  0  0  0  0  0
    3.6701   -3.2298    1.9451 H   0  0  0  0  0  0  0  0  0  0  0  0
    5.2165   -3.6236    2.6606 H   0  0  0  0  0  0  0  0  0  0  0  0
    3.7495   -1.7842    3.8350 H   0  0  0  0  0  0  0  0  0  0  0  0
    5.4456   -1.4259    3.6217 H   0  0  0  0  0  0  0  0  0  0  0  0
    3.9475    0.5601    2.9741 H   0  0  0  0  0  0  0  0  0  0  0  0
    3.8683    0.7618    0.5274 H   0  0  0  0  0  0  0  0  0  0  0  0
    2.4077   -1.2019   -2.2705 H   0  0  0  0  0  0  0  0  0  0  0  0
    3.7759   -0.0160   -2.3129 H   0  0  0  0  0  0  0  0  0  0  0  0
    3.3525   -4.6881   -1.6302 H   0  0  0  0  0  0  0  0  0  0  0  0
  1  2  1  0
  1 17  1  0
  1 18  1  0
  1 19  1  0
  2 15  1  0
  2  3  1  0
  2  4  1  0
  3 20  1  0
  3 21  1  0
  3 22  1  0
  4  9  1  0
  4  5  1  0
  4 23  1  1
  5  6  1  0
  5 24  1  0
  5 25  1  0
  6  7  1  0
  6 26  1  0
  6 27  1  0
  7  8  2  0
  7 28  1  0
  8  9  1  0
  8 29  1  0
  9 10  2  0
 10 15  1  0
 10 11  1  0
 11 12  1  0
 11 30  1  0
 11 31  1  0
 12 13  2  0
 12 14  1  0
 14 15  1  0
 15 16  1  6
 16 32  1  0
M  END
>  <i_m_ct_stereo_status>  (303) 
1

>  <s_m_source_file>  (303) 
/var/tmp/pbs.5076255.sched01/tmp7yh4k8o6/114t33l0ocj.sdf

>  <i_m_source_file_index>  (303) 
31

>  <i_lp_mmshare_version>  (303) 
48012

>  <i_f3d_flags>  (303) 
0

>  <s_epik_input>  (303) 
W0NIXTE9W0NIXVtDSDJdW0NIMl1bQ0BASF0oQzIoW0NIM10pW0NIM10pQzE9QyhbQ0gyXUMoPU8pTzMpW0NAXTIzW09IXQ==

>  <s_epik_cmdline>  (303) 
J2VwaWtfcHl0aG9uJywgJy1waHQnLCAnMi4wJywgJy1waCcsICc3LjAnLCAnLXRuJywgJzgnLCAnLW1hJywgJzIwMCcsICctaW1hZScsICc8aW5maWxlLm1hZT4nLCAnLW9tYWUnLCAnPG91dGZpbGUubWFlPic=

>  <r_lp_tautomer_probability>  (303) 
1

>  <r_epik_Ionization_Penalty>  (303) 
5.34186e-05

>  <r_epik_Ionization_Penalty_Charging>  (303) 
0

>  <r_epik_Ionization_Penalty_Neutral>  (303) 
5.34186e-05

>  <r_epik_State_Penalty>  (303) 
-0

>  <r_epik_Charging_Adjusted_Penalty>  (303) 
0

>  <i_epik_Tot_Q>  (303) 
0

>  <i_epik_Tot_abs_Q>  (303) 
0

>  <s_epik_Chemistry_Notes>  (303) 
This compound has an ester and may undergo hydrolysis at high or low pH.

>  <s_lp_Force_Field>  (303) 
OPLS3e

>  <r_lp_Energy>  (303) 
13.1419

>  <b_lp_Chiralities_Consistent>  (303) 
1

>  <s_lp_Variant>  (303) 
108:0-1

>  <s_i_glide_gridfile>  (303) 
pfpi4k_grid

>  <i_i_glide_lignum>  (303) 
31

>  <i_i_glide_rotatable_bonds>  (303) 
1

>  <r_i_docking_score>  (303) 
-4.88541

>  <r_i_glide_ligand_efficiency>  (303) 
-0.305338

>  <r_i_glide_ligand_efficiency_sa>  (303) 
-0.769403

>  <r_i_glide_ligand_efficiency_ln>  (303) 
-1.29497

>  <r_i_glide_gscore>  (303) 
-4.88541

>  <r_i_glide_lipo>  (303) 
-0.487306

>  <r_i_glide_hbond>  (303) 
-0.304

>  <r_i_glide_metal>  (303) 
-0

>  <r_i_glide_rewards>  (303) 
-2.08642

>  <r_i_glide_evdw>  (303) 
-20.5741

>  <r_i_glide_ecoul>  (303) 
-6.48851

>  <r_i_glide_erotb>  (303) 
0

>  <r_i_glide_esite>  (303) 
-0.00569786

>  <r_i_glide_emodel>  (303) 
-34.6406

>  <r_i_glide_energy>  (303) 
-27.0626

>  <r_i_glide_einternal>  (303) 
0.591654

>  <r_i_glide_intrahb_reward>  (303) 
-0

>  <i_i_glide_confnum>  (303) 
2

>  <i_i_glide_posenum>  (303) 
9

>  <r_i_glide_eff_state_penalty>  (303) 
0

>  <ligand_id>  (303) 
108

>  <original_smiles>  (303) 
CC1(C)C2CCC=CC2=C2CC(=O)OC21O

>  <smiles>  (303) 
[H]OC12OC(=O)C([H])([H])C1=C1C([H])=C([H])C([H])([H])C([H])([H])C1([H])C2(C([H])([H])[H])C([H])([H])[H]

$$$$
108:0:1
     RDKit          3D

 32 34  0  0  1  0  0  0  0  0999 V2000
    5.6206   -4.6144   -0.2992 C   0  0  0  0  0  0  0  0  0  0  0  0
    4.3232   -4.0223    0.2793 C   0  0  0  0  0  0  0  0  0  0  0  0
    3.4648   -5.1858    0.8314 C   0  0  0  0  0  0  0  0  0  0  0  0
    4.6691   -2.9120    1.3306 C   0  0  2  0  0  0  0  0  0  0  0  0
    3.8682   -2.7747    2.6307 C   0  0  0  0  0  0  0  0  0  0  0  0
    4.4059   -1.5657    3.4422 C   0  0  0  0  0  0  0  0  0  0  0  0
    4.8276   -0.3607    2.5889 C   0  0  0  0  0  0  0  0  0  0  0  0
    4.8622   -0.3711    1.2381 C   0  0  0  0  0  0  0  0  0  0  0  0
    4.5182   -1.6086    0.5938 C   0  0  0  0  0  0  0  0  0  0  0  0
    4.0202   -1.8196   -0.6194 C   0  0  0  0  0  0  0  0  0  0  0  0
    3.9026   -1.0711   -1.9048 C   0  0  0  0  0  0  0  0  0  0  0  0
    4.0362   -2.2691   -2.8507 C   0  0  0  0  0  0  0  0  0  0  0  0
    4.1795   -2.1463   -4.0687 O   0  0  0  0  0  0  0  0  0  0  0  0
    3.9832   -3.4520   -2.1733 O   0  0  0  0  0  0  0  0  0  0  0  0
    3.6044   -3.2067   -0.8541 C   0  0  1  0  0  0  0  0  0  0  0  0
    2.2085   -3.2439   -0.7019 O   0  0  0  0  0  0  0  0  0  0  0  0
    6.2030   -5.1334    0.4599 H   0  0  0  0  0  0  0  0  0  0  0  0
    6.2559   -3.8460   -0.7371 H   0  0  0  0  0  0  0  0  0  0  0  0
    5.3914   -5.3364   -1.0811 H   0  0  0  0  0  0  0  0  0  0  0  0
    2.5453   -4.8410    1.3035 H   0  0  0  0  0  0  0  0  0  0  0  0
    4.0220   -5.7527    1.5782 H   0  0  0  0  0  0  0  0  0  0  0  0
    3.1920   -5.8774    0.0329 H   0  0  0  0  0  0  0  0  0  0  0  0
    5.7157   -3.0061    1.6139 H   0  0  0  0  0  0  0  0  0  0  0  0
    2.8198   -2.5965    2.3865 H   0  0  0  0  0  0  0  0  0  0  0  0
    3.8960   -3.6876    3.2294 H   0  0  0  0  0  0  0  0  0  0  0  0
    3.6492   -1.2378    4.1524 H   0  0  0  0  0  0  0  0  0  0  0  0
    5.2719   -1.8761    4.0250 H   0  0  0  0  0  0  0  0  0  0  0  0
    5.0917    0.5210    3.1483 H   0  0  0  0  0  0  0  0  0  0  0  0
    5.1583    0.4991    0.6634 H   0  0  0  0  0  0  0  0  0  0  0  0
    2.9065   -0.6503   -2.0278 H   0  0  0  0  0  0  0  0  0  0  0  0
    4.6863   -0.3380   -2.0800 H   0  0  0  0  0  0  0  0  0  0  0  0
    1.8622   -2.3627   -0.8319 H   0  0  0  0  0  0  0  0  0  0  0  0
  1  2  1  0
  1 17  1  0
  1 18  1  0
  1 19  1  0
  2 15  1  0
  2  3  1  0
  2  4  1  0
  3 20  1  0
  3 21  1  0
  3 22  1  0
  4  9  1  0
  4  5  1  0
  4 23  1  1
  5  6  1  0
  5 24  1  0
  5 25  1  0
  6  7  1  0
  6 26  1  0
  6 27  1  0
  7  8  2  0
  7 28  1  0
  8  9  1  0
  8 29  1  0
  9 10  2  0
 10 15  1  0
 10 11  1  0
 11 12  1  0
 11 30  1  0
 11 31  1  0
 12 13  2  0
 12 14  1  0
 14 15  1  0
 15 16  1  6
 16 32  1  0
M  END
>  <i_m_ct_stereo_status>  (304) 
1

>  <s_m_source_file>  (304) 
/var/tmp/pbs.5076255.sched01/tmp7yh4k8o6/114t33l0ocj.sdf

>  <i_m_source_file_index>  (304) 
31

>  <i_lp_mmshare_version>  (304) 
48012

>  <i_f3d_flags>  (304) 
0

>  <s_epik_input>  (304) 
W0NIXTE9W0NIXVtDSDJdW0NIMl1bQ0BASF0oQzIoW0NIM10pW0NIM10pQzE9QyhbQ0gyXUMoPU8pTzMpW0NAXTIzW09IXQ==

>  <s_epik_cmdline>  (304) 
J2VwaWtfcHl0aG9uJywgJy1waHQnLCAnMi4wJywgJy1waCcsICc3LjAnLCAnLXRuJywgJzgnLCAnLW1hJywgJzIwMCcsICctaW1hZScsICc8aW5maWxlLm1hZT4nLCAnLW9tYWUnLCAnPG91dGZpbGUubWFlPic=

>  <r_lp_tautomer_probability>  (304) 
1

>  <r_epik_Ionization_Penalty>  (304) 
5.34186e-05

>  <r_epik_Ionization_Penalty_Charging>  (304) 
0

>  <r_epik_Ionization_Penalty_Neutral>  (304) 
5.34186e-05

>  <r_epik_State_Penalty>  (304) 
-0

>  <r_epik_Charging_Adjusted_Penalty>  (304) 
0

>  <i_epik_Tot_Q>  (304) 
0

>  <i_epik_Tot_abs_Q>  (304) 
0

>  <s_epik_Chemistry_Notes>  (304) 
This compound has an ester and may undergo hydrolysis at high or low pH.

>  <s_lp_Force_Field>  (304) 
OPLS3e

>  <r_lp_Energy>  (304) 
13.1419

>  <b_lp_Chiralities_Consistent>  (304) 
1

>  <s_lp_Variant>  (304) 
108:0-1

>  <s_i_glide_gridfile>  (304) 
pfpi4k_grid

>  <i_i_glide_lignum>  (304) 
31

>  <i_i_glide_rotatable_bonds>  (304) 
1

>  <r_i_docking_score>  (304) 
-4.49867

>  <r_i_glide_ligand_efficiency>  (304) 
-0.281167

>  <r_i_glide_ligand_efficiency_sa>  (304) 
-0.708497

>  <r_i_glide_ligand_efficiency_ln>  (304) 
-1.19246

>  <r_i_glide_gscore>  (304) 
-4.49867

>  <r_i_glide_lipo>  (304) 
-0.39797

>  <r_i_glide_hbond>  (304) 
-0.264118

>  <r_i_glide_metal>  (304) 
-0

>  <r_i_glide_rewards>  (304) 
-2.08832

>  <r_i_glide_evdw>  (304) 
-19.4522

>  <r_i_glide_ecoul>  (304) 
-5.17104

>  <r_i_glide_erotb>  (304) 
0

>  <r_i_glide_esite>  (304) 
0

>  <r_i_glide_emodel>  (304) 
-31.6296

>  <r_i_glide_energy>  (304) 
-24.6232

>  <r_i_glide_einternal>  (304) 
0.349094

>  <r_i_glide_intrahb_reward>  (304) 
-0

>  <i_i_glide_confnum>  (304) 
2

>  <i_i_glide_posenum>  (304) 
40

>  <r_i_glide_eff_state_penalty>  (304) 
0

>  <ligand_id>  (304) 
108

>  <original_smiles>  (304) 
CC1(C)C2CCC=CC2=C2CC(=O)OC21O

>  <smiles>  (304) 
[H]OC12OC(=O)C([H])([H])C1=C1C([H])=C([H])C([H])([H])C([H])([H])C1([H])C2(C([H])([H])[H])C([H])([H])[H]

$$$$
108:0:2
     RDKit          3D

 32 34  0  0  1  0  0  0  0  0999 V2000
    6.7813   -3.2113   -1.4008 C   0  0  0  0  0  0  0  0  0  0  0  0
    5.4113   -3.3791   -0.6959 C   0  0  0  0  0  0  0  0  0  0  0  0
    5.2120   -4.8615   -0.3184 C   0  0  0  0  0  0  0  0  0  0  0  0
    5.3359   -2.3960    0.5251 C   0  0  2  0  0  0  0  0  0  0  0  0
    4.6789   -2.8198    1.8472 C   0  0  0  0  0  0  0  0  0  0  0  0
    4.7011   -1.6337    2.8488 C   0  0  0  0  0  0  0  0  0  0  0  0
    4.4619   -0.2633    2.2038 C   0  0  0  0  0  0  0  0  0  0  0  0
    4.3735   -0.0634    0.8718 C   0  0  0  0  0  0  0  0  0  0  0  0
    4.5634   -1.2129    0.0157 C   0  0  0  0  0  0  0  0  0  0  0  0
    4.1160   -1.4527   -1.2165 C   0  0  0  0  0  0  0  0  0  0  0  0
    3.5570   -0.6800   -2.3657 C   0  0  0  0  0  0  0  0  0  0  0  0
    4.0824   -1.5622   -3.4964 C   0  0  0  0  0  0  0  0  0  0  0  0
    4.0697   -1.2116   -4.6703 O   0  0  0  0  0  0  0  0  0  0  0  0
    4.5888   -2.7409   -3.0100 O   0  0  0  0  0  0  0  0  0  0  0  0
    4.2872   -2.8412   -1.6520 C   0  0  1  0  0  0  0  0  0  0  0  0
    3.0403   -3.4634   -1.4330 O   0  0  0  0  0  0  0  0  0  0  0  0
    7.6055   -3.5177   -0.7565 H   0  0  0  0  0  0  0  0  0  0  0  0
    6.9697   -2.1865   -1.7142 H   0  0  0  0  0  0  0  0  0  0  0  0
    6.8335   -3.8258   -2.2988 H   0  0  0  0  0  0  0  0  0  0  0  0
    4.2823   -5.0370    0.2227 H   0  0  0  0  0  0  0  0  0  0  0  0
    6.0355   -5.2185    0.3025 H   0  0  0  0  0  0  0  0  0  0  0  0
    5.1796   -5.4756   -1.2166 H   0  0  0  0  0  0  0  0  0  0  0  0
    6.3433   -2.0587    0.7708 H   0  0  0  0  0  0  0  0  0  0  0  0
    3.6429   -3.0987    1.6567 H   0  0  0  0  0  0  0  0  0  0  0  0
    5.1646   -3.6954    2.2790 H   0  0  0  0  0  0  0  0  0  0  0  0
    3.9539   -1.7906    3.6247 H   0  0  0  0  0  0  0  0  0  0  0  0
    5.6675   -1.6002    3.3522 H   0  0  0  0  0  0  0  0  0  0  0  0
    4.3554    0.5654    2.8878 H   0  0  0  0  0  0  0  0  0  0  0  0
    4.2100    0.9246    0.4669 H   0  0  0  0  0  0  0  0  0  0  0  0
    2.4660   -0.6993   -2.3557 H   0  0  0  0  0  0  0  0  0  0  0  0
    3.9395    0.3328   -2.4574 H   0  0  0  0  0  0  0  0  0  0  0  0
    2.3584   -2.8494   -1.6658 H   0  0  0  0  0  0  0  0  0  0  0  0
  1  2  1  0
  1 17  1  0
  1 18  1  0
  1 19  1  0
  2 15  1  0
  2  3  1  0
  2  4  1  0
  3 20  1  0
  3 21  1  0
  3 22  1  0
  4  9  1  0
  4  5  1  0
  4 23  1  1
  5  6  1  0
  5 24  1  0
  5 25  1  0
  6  7  1  0
  6 26  1  0
  6 27  1  0
  7  8  2  0
  7 28  1  0
  8  9  1  0
  8 29  1  0
  9 10  2  0
 10 15  1  0
 10 11  1  0
 11 12  1  0
 11 30  1  0
 11 31  1  0
 12 13  2  0
 12 14  1  0
 14 15  1  0
 15 16  1  6
 16 32  1  0
M  END
>  <i_m_ct_stereo_status>  (305) 
1

>  <s_m_source_file>  (305) 
/var/tmp/pbs.5076255.sched01/tmp7yh4k8o6/114t33l0ocj.sdf

>  <i_m_source_file_index>  (305) 
31

>  <i_lp_mmshare_version>  (305) 
48012

>  <i_f3d_flags>  (305) 
0

>  <s_epik_input>  (305) 
W0NIXTE9W0NIXVtDSDJdW0NIMl1bQ0BASF0oQzIoW0NIM10pW0NIM10pQzE9QyhbQ0gyXUMoPU8pTzMpW0NAXTIzW09IXQ==

>  <s_epik_cmdline>  (305) 
J2VwaWtfcHl0aG9uJywgJy1waHQnLCAnMi4wJywgJy1waCcsICc3LjAnLCAnLXRuJywgJzgnLCAnLW1hJywgJzIwMCcsICctaW1hZScsICc8aW5maWxlLm1hZT4nLCAnLW9tYWUnLCAnPG91dGZpbGUubWFlPic=

>  <r_lp_tautomer_probability>  (305) 
1

>  <r_epik_Ionization_Penalty>  (305) 
5.34186e-05

>  <r_epik_Ionization_Penalty_Charging>  (305) 
0

>  <r_epik_Ionization_Penalty_Neutral>  (305) 
5.34186e-05

>  <r_epik_State_Penalty>  (305) 
-0

>  <r_epik_Charging_Adjusted_Penalty>  (305) 
0

>  <i_epik_Tot_Q>  (305) 
0

>  <i_epik_Tot_abs_Q>  (305) 
0

>  <s_epik_Chemistry_Notes>  (305) 
This compound has an ester and may undergo hydrolysis at high or low pH.

>  <s_lp_Force_Field>  (305) 
OPLS3e

>  <r_lp_Energy>  (305) 
13.1419

>  <b_lp_Chiralities_Consistent>  (305) 
1

>  <s_lp_Variant>  (305) 
108:0-1

>  <s_i_glide_gridfile>  (305) 
pfpi4k_grid

>  <i_i_glide_lignum>  (305) 
31

>  <i_i_glide_rotatable_bonds>  (305) 
1

>  <r_i_docking_score>  (305) 
-4.42854

>  <r_i_glide_ligand_efficiency>  (305) 
-0.276784

>  <r_i_glide_ligand_efficiency_sa>  (305) 
-0.697451

>  <r_i_glide_ligand_efficiency_ln>  (305) 
-1.17387

>  <r_i_glide_gscore>  (305) 
-4.42854

>  <r_i_glide_lipo>  (305) 
-0.476798

>  <r_i_glide_hbond>  (305) 
-0.32

>  <r_i_glide_metal>  (305) 
-0

>  <r_i_glide_rewards>  (305) 
-2.16832

>  <r_i_glide_evdw>  (305) 
-20.5575

>  <r_i_glide_ecoul>  (305) 
-2.78623

>  <r_i_glide_erotb>  (305) 
0

>  <r_i_glide_esite>  (305) 
-0.0176121

>  <r_i_glide_emodel>  (305) 
-30.4044

>  <r_i_glide_energy>  (305) 
-23.3438

>  <r_i_glide_einternal>  (305) 
0.117103

>  <r_i_glide_intrahb_reward>  (305) 
-0

>  <i_i_glide_confnum>  (305) 
2

>  <i_i_glide_posenum>  (305) 
15

>  <r_i_glide_eff_state_penalty>  (305) 
0

>  <ligand_id>  (305) 
108

>  <original_smiles>  (305) 
CC1(C)C2CCC=CC2=C2CC(=O)OC21O

>  <smiles>  (305) 
[H]OC12OC(=O)C([H])([H])C1=C1C([H])=C([H])C([H])([H])C([H])([H])C1([H])C2(C([H])([H])[H])C([H])([H])[H]

$$$$
109:0:0
     RDKit          3D

 27 29  0  0  1  0  0  0  0  0999 V2000
    2.1321   -0.8017    1.7368 C   0  0  0  0  0  0  0  0  0  0  0  0
    1.9585    0.1382    2.7069 N   0  0  0  0  0  0  0  0  0  0  0  0
    3.2216    0.5340    2.9959 N   0  0  0  0  0  0  0  0  0  0  0  0
    4.0971   -0.1314    2.2340 C   0  0  0  0  0  0  0  0  0  0  0  0
    5.3664   -0.2589    1.9963 N   0  0  0  0  0  0  0  0  0  0  0  0
    5.4674   -1.2440    0.9558 N   0  0  0  0  0  0  0  0  0  0  0  0
    4.2226   -1.6540    0.6563 C   0  0  0  0  0  0  0  0  0  0  0  0
    3.8804   -2.7480   -0.3033 C   0  0  0  0  0  0  0  0  0  0  0  0
    3.4182   -2.0717   -1.5542 N   0  0  0  0  0  0  0  0  0  0  0  0
    4.4166   -1.2533   -2.2931 C   0  0  0  0  0  0  0  0  0  0  0  0
    3.8189   -1.0674   -3.6949 C   0  0  0  0  0  0  0  0  0  0  0  0
    2.8448   -2.2446   -3.8661 C   0  0  0  0  0  0  0  0  0  0  0  0
    2.9221   -3.0290   -2.5608 C   0  0  0  0  0  0  0  0  0  0  0  0
    3.4217   -0.9428    1.4394 N   0  0  0  0  0  0  0  0  0  0  0  0
    3.4814    1.2421    3.6667 H   0  0  0  0  0  0  0  0  0  0  0  0
    1.3955   -1.4398    1.2800 H   0  0  0  0  0  0  0  0  0  0  0  0
    4.7967   -3.3199   -0.4717 H   0  0  0  0  0  0  0  0  0  0  0  0
    3.1425   -3.4324    0.1282 H   0  0  0  0  0  0  0  0  0  0  0  0
    4.6713   -0.3048   -1.8114 H   0  0  0  0  0  0  0  0  0  0  0  0
    5.3385   -1.8248   -2.3975 H   0  0  0  0  0  0  0  0  0  0  0  0
    3.2664   -0.1278   -3.7378 H   0  0  0  0  0  0  0  0  0  0  0  0
    4.5844   -1.0407   -4.4750 H   0  0  0  0  0  0  0  0  0  0  0  0
    1.8287   -1.8834   -4.0074 H   0  0  0  0  0  0  0  0  0  0  0  0
    3.0773   -2.8885   -4.7129 H   0  0  0  0  0  0  0  0  0  0  0  0
    3.6672   -3.8150   -2.6854 H   0  0  0  0  0  0  0  0  0  0  0  0
    1.9850   -3.5094   -2.2718 H   0  0  0  0  0  0  0  0  0  0  0  0
    2.6376   -1.4544   -1.3467 H   0  0  0  0  0  0  0  0  0  0  0  0
  1 14  1  0
  1  2  2  0
  1 16  1  0
  2  3  1  0
  3 15  1  0
  3  4  1  0
  4 14  1  0
  4  5  2  0
  5  6  1  0
  6  7  2  0
  7  8  1  0
  7 14  1  0
  8  9  1  0
  8 17  1  0
  8 18  1  0
  9 13  1  0
  9 10  1  0
  9 27  1  0
 10 11  1  0
 10 19  1  0
 10 20  1  0
 11 12  1  0
 11 21  1  0
 11 22  1  0
 12 13  1  0
 12 23  1  0
 12 24  1  0
 13 25  1  0
 13 26  1  0
M  CHG  1   9   1
M  END
>  <i_m_ct_stereo_status>  (306) 
1

>  <s_m_source_file>  (306) 
/var/tmp/pbs.5076255.sched01/tmp7yh4k8o6/114t33l0ocj.sdf

>  <i_m_source_file_index>  (306) 
32

>  <i_lp_mmshare_version>  (306) 
48012

>  <i_f3d_flags>  (306) 
0

>  <s_epik_input>  (306) 
W25IXTFuW2NIXW4oYzEyKWMobm4yKVtDSDJdTjNbQ0gyXVtDSDJdW0NIMl1bQ0gyXTM=

>  <s_epik_cmdline>  (306) 
J2VwaWtfcHl0aG9uJywgJy1waHQnLCAnMi4wJywgJy1waCcsICc3LjAnLCAnLXRuJywgJzgnLCAnLW1hJywgJzIwMCcsICctaW1hZScsICc8aW5maWxlLm1hZT4nLCAnLW9tYWUnLCAnPG91dGZpbGUubWFlPic=

>  <r_epik_Ionization_Penalty>  (306) 
0.202154

>  <r_epik_Ionization_Penalty_Charging>  (306) 
0.202154

>  <r_epik_Ionization_Penalty_Neutral>  (306) 
1.2479e-09

>  <r_epik_State_Penalty>  (306) 
0.192036

>  <r_epik_Charging_Adjusted_Penalty>  (306) 
0.39419

>  <i_epik_Tot_Q>  (306) 
1

>  <i_epik_Tot_abs_Q>  (306) 
1

>  <s_lp_Force_Field>  (306) 
OPLS3e

>  <r_lp_Energy>  (306) 
14.0808

>  <b_lp_Chiralities_Consistent>  (306) 
1

>  <s_lp_Variant>  (306) 
109:0-1

>  <s_i_glide_gridfile>  (306) 
pfpi4k_grid

>  <i_i_glide_lignum>  (306) 
32

>  <i_i_glide_rotatable_bonds>  (306) 
2

>  <r_i_docking_score>  (306) 
-4.06115

>  <r_i_glide_ligand_efficiency>  (306) 
-0.290082

>  <r_i_glide_ligand_efficiency_sa>  (306) 
-0.69914

>  <r_i_glide_ligand_efficiency_ln>  (306) 
-1.11599

>  <r_i_glide_gscore>  (306) 
-4.06115

>  <r_i_glide_lipo>  (306) 
-0.373356

>  <r_i_glide_hbond>  (306) 
-0.2

>  <r_i_glide_metal>  (306) 
-0

>  <r_i_glide_rewards>  (306) 
-2.14623

>  <r_i_glide_evdw>  (306) 
-20.4119

>  <r_i_glide_ecoul>  (306) 
-6.72682

>  <r_i_glide_erotb>  (306) 
0.864802

>  <r_i_glide_esite>  (306) 
-0.176756

>  <r_i_glide_emodel>  (306) 
-34.7244

>  <r_i_glide_energy>  (306) 
-27.1387

>  <r_i_glide_einternal>  (306) 
0.242136

>  <r_i_glide_intrahb_reward>  (306) 
-0

>  <i_i_glide_confnum>  (306) 
5

>  <i_i_glide_posenum>  (306) 
1

>  <r_i_glide_eff_state_penalty>  (306) 
0

>  <ligand_id>  (306) 
109

>  <original_smiles>  (306) 
c1n[nH]c2nnc(CN3CCCC3)n12

>  <smiles>  (306) 
[H]c1nn([H])c2nnc(C([H])([H])[N+]3([H])C([H])([H])C([H])([H])C([H])([H])C3([H])[H])n12

$$$$
109:0:1
     RDKit          3D

 27 29  0  0  1  0  0  0  0  0999 V2000
    4.0805   -1.6556    1.1114 C   0  0  0  0  0  0  0  0  0  0  0  0
    4.2207   -0.9027    2.2206 N   0  0  0  0  0  0  0  0  0  0  0  0
    5.5691   -0.6703    2.3047 N   0  0  0  0  0  0  0  0  0  0  0  0
    6.1727   -1.2578    1.2764 C   0  0  0  0  0  0  0  0  0  0  0  0
    7.3521   -1.4568    0.7219 N   0  0  0  0  0  0  0  0  0  0  0  0
    7.1163   -2.2563   -0.4291 N   0  0  0  0  0  0  0  0  0  0  0  0
    5.8078   -2.5015   -0.4908 C   0  0  0  0  0  0  0  0  0  0  0  0
    5.1803   -3.3799   -1.5269 C   0  0  0  0  0  0  0  0  0  0  0  0
    4.0835   -2.5899   -2.1316 N   0  0  0  0  0  0  0  0  0  0  0  0
    4.4655   -1.5036   -3.0509 C   0  0  0  0  0  0  0  0  0  0  0  0
    3.1917   -1.1796   -3.8373 C   0  0  0  0  0  0  0  0  0  0  0  0
    2.3417   -2.4572   -3.7397 C   0  0  0  0  0  0  0  0  0  0  0  0
    3.1662   -3.4204   -2.9075 C   0  0  0  0  0  0  0  0  0  0  0  0
    5.2645   -1.8711    0.5385 N   0  0  0  0  0  0  0  0  0  0  0  0
    6.0548   -0.1405    3.0202 H   0  0  0  0  0  0  0  0  0  0  0  0
    3.1821   -2.0722    0.6745 H   0  0  0  0  0  0  0  0  0  0  0  0
    5.9487   -3.6426   -2.2600 H   0  0  0  0  0  0  0  0  0  0  0  0
    4.8518   -4.3219   -1.0585 H   0  0  0  0  0  0  0  0  0  0  0  0
    4.9119   -0.6318   -2.5579 H   0  0  0  0  0  0  0  0  0  0  0  0
    5.1864   -1.9042   -3.7574 H   0  0  0  0  0  0  0  0  0  0  0  0
    2.6642   -0.3537   -3.3595 H   0  0  0  0  0  0  0  0  0  0  0  0
    3.4005   -0.8963   -4.8712 H   0  0  0  0  0  0  0  0  0  0  0  0
    1.4189   -2.2693   -3.2099 H   0  0  0  0  0  0  0  0  0  0  0  0
    2.0907   -2.9183   -4.6987 H   0  0  0  0  0  0  0  0  0  0  0  0
    3.7423   -4.0621   -3.5757 H   0  0  0  0  0  0  0  0  0  0  0  0
    2.5246   -4.0123   -2.2554 H   0  0  0  0  0  0  0  0  0  0  0  0
    3.5151   -2.1637   -1.4137 H   0  0  0  0  0  0  0  0  0  0  0  0
  1 14  1  0
  1  2  2  0
  1 16  1  0
  2  3  1  0
  3 15  1  0
  3  4  1  0
  4 14  1  0
  4  5  2  0
  5  6  1  0
  6  7  2  0
  7  8  1  0
  7 14  1  0
  8  9  1  0
  8 17  1  0
  8 18  1  0
  9 13  1  0
  9 10  1  0
  9 27  1  0
 10 11  1  0
 10 19  1  0
 10 20  1  0
 11 12  1  0
 11 21  1  0
 11 22  1  0
 12 13  1  0
 12 23  1  0
 12 24  1  0
 13 25  1  0
 13 26  1  0
M  CHG  1   9   1
M  END
>  <i_m_ct_stereo_status>  (307) 
1

>  <s_m_source_file>  (307) 
/var/tmp/pbs.5076255.sched01/tmp7yh4k8o6/114t33l0ocj.sdf

>  <i_m_source_file_index>  (307) 
32

>  <i_lp_mmshare_version>  (307) 
48012

>  <i_f3d_flags>  (307) 
0

>  <s_epik_input>  (307) 
W25IXTFuW2NIXW4oYzEyKWMobm4yKVtDSDJdTjNbQ0gyXVtDSDJdW0NIMl1bQ0gyXTM=

>  <s_epik_cmdline>  (307) 
J2VwaWtfcHl0aG9uJywgJy1waHQnLCAnMi4wJywgJy1waCcsICc3LjAnLCAnLXRuJywgJzgnLCAnLW1hJywgJzIwMCcsICctaW1hZScsICc8aW5maWxlLm1hZT4nLCAnLW9tYWUnLCAnPG91dGZpbGUubWFlPic=

>  <r_epik_Ionization_Penalty>  (307) 
0.202154

>  <r_epik_Ionization_Penalty_Charging>  (307) 
0.202154

>  <r_epik_Ionization_Penalty_Neutral>  (307) 
1.2479e-09

>  <r_epik_State_Penalty>  (307) 
0.192036

>  <r_epik_Charging_Adjusted_Penalty>  (307) 
0.39419

>  <i_epik_Tot_Q>  (307) 
1

>  <i_epik_Tot_abs_Q>  (307) 
1

>  <s_lp_Force_Field>  (307) 
OPLS3e

>  <r_lp_Energy>  (307) 
14.0808

>  <b_lp_Chiralities_Consistent>  (307) 
1

>  <s_lp_Variant>  (307) 
109:0-1

>  <s_i_glide_gridfile>  (307) 
pfpi4k_grid

>  <i_i_glide_lignum>  (307) 
32

>  <i_i_glide_rotatable_bonds>  (307) 
2

>  <r_i_docking_score>  (307) 
-3.85138

>  <r_i_glide_ligand_efficiency>  (307) 
-0.275099

>  <r_i_glide_ligand_efficiency_sa>  (307) 
-0.663027

>  <r_i_glide_ligand_efficiency_ln>  (307) 
-1.05835

>  <r_i_glide_gscore>  (307) 
-3.85138

>  <r_i_glide_lipo>  (307) 
-0.524377

>  <r_i_glide_hbond>  (307) 
0

>  <r_i_glide_metal>  (307) 
-0

>  <r_i_glide_rewards>  (307) 
-2.40249

>  <r_i_glide_evdw>  (307) 
-16.9973

>  <r_i_glide_ecoul>  (307) 
-5.61934

>  <r_i_glide_erotb>  (307) 
0.864802

>  <r_i_glide_esite>  (307) 
-0.0965519

>  <r_i_glide_emodel>  (307) 
-29.8084

>  <r_i_glide_energy>  (307) 
-22.6167

>  <r_i_glide_einternal>  (307) 
0.191937

>  <r_i_glide_intrahb_reward>  (307) 
-0

>  <i_i_glide_confnum>  (307) 
1

>  <i_i_glide_posenum>  (307) 
40

>  <r_i_glide_eff_state_penalty>  (307) 
0

>  <ligand_id>  (307) 
109

>  <original_smiles>  (307) 
c1n[nH]c2nnc(CN3CCCC3)n12

>  <smiles>  (307) 
[H]c1nn([H])c2nnc(C([H])([H])[N+]3([H])C([H])([H])C([H])([H])C([H])([H])C3([H])[H])n12

$$$$
109:0:2
     RDKit          3D

 27 29  0  0  1  0  0  0  0  0999 V2000
    3.1437   -4.6091    0.4686 C   0  0  0  0  0  0  0  0  0  0  0  0
    2.4759   -5.4824    1.2223 N   0  0  0  0  0  0  0  0  0  0  0  0
    2.1749   -4.7845    2.3425 N   0  0  0  0  0  0  0  0  0  0  0  0
    2.5969   -3.5053    2.1984 C   0  0  0  0  0  0  0  0  0  0  0  0
    2.6408   -2.3744    2.8338 N   0  0  0  0  0  0  0  0  0  0  0  0
    3.2428   -1.4468    1.9345 N   0  0  0  0  0  0  0  0  0  0  0  0
    3.5378   -2.0927    0.7882 C   0  0  0  0  0  0  0  0  0  0  0  0
    4.2316   -1.4093   -0.3783 C   0  0  0  0  0  0  0  0  0  0  0  0
    3.4232   -1.6365   -1.6083 N   0  0  0  0  0  0  0  0  0  0  0  0
    3.8817   -0.8710   -2.7670 C   0  0  0  0  0  0  0  0  0  0  0  0
    3.2757   -1.5871   -3.9764 C   0  0  0  0  0  0  0  0  0  0  0  0
    3.0391   -3.0264   -3.5168 C   0  0  0  0  0  0  0  0  0  0  0  0
    3.5040   -2.9962   -2.1212 C   0  0  0  0  0  0  0  0  0  0  0  0
    3.1613   -3.3596    1.0085 N   0  0  0  0  0  0  0  0  0  0  0  0
    1.7511   -5.1827    3.1561 H   0  0  0  0  0  0  0  0  0  0  0  0
    3.5947   -4.8865   -0.4917 H   0  0  0  0  0  0  0  0  0  0  0  0
    4.2697   -0.3136   -0.2049 H   0  0  0  0  0  0  0  0  0  0  0  0
    5.2529   -1.7664   -0.4830 H   0  0  0  0  0  0  0  0  0  0  0  0
    3.6317    0.1905   -2.7311 H   0  0  0  0  0  0  0  0  0  0  0  0
    4.9782   -0.9652   -2.8140 H   0  0  0  0  0  0  0  0  0  0  0  0
    2.3112   -1.1404   -4.2303 H   0  0  0  0  0  0  0  0  0  0  0  0
    3.9372   -1.5716   -4.8412 H   0  0  0  0  0  0  0  0  0  0  0  0
    1.9665   -3.2618   -3.5039 H   0  0  0  0  0  0  0  0  0  0  0  0
    3.5486   -3.8012   -4.0891 H   0  0  0  0  0  0  0  0  0  0  0  0
    4.4968   -3.4171   -1.9856 H   0  0  0  0  0  0  0  0  0  0  0  0
    2.6789   -3.5443   -1.6248 H   0  0  0  0  0  0  0  0  0  0  0  0
    2.4421   -1.4174   -1.4101 H   0  0  0  0  0  0  0  0  0  0  0  0
  1 14  1  0
  1  2  2  0
  1 16  1  0
  2  3  1  0
  3 15  1  0
  3  4  1  0
  4 14  1  0
  4  5  2  0
  5  6  1  0
  6  7  2  0
  7  8  1  0
  7 14  1  0
  8  9  1  0
  8 17  1  0
  8 18  1  0
  9 13  1  0
  9 10  1  0
  9 27  1  0
 10 11  1  0
 10 19  1  0
 10 20  1  0
 11 12  1  0
 11 21  1  0
 11 22  1  0
 12 13  1  0
 12 23  1  0
 12 24  1  0
 13 25  1  0
 13 26  1  0
M  CHG  1   9   1
M  END
>  <i_m_ct_stereo_status>  (308) 
1

>  <s_m_source_file>  (308) 
/var/tmp/pbs.5076255.sched01/tmp7yh4k8o6/114t33l0ocj.sdf

>  <i_m_source_file_index>  (308) 
32

>  <i_lp_mmshare_version>  (308) 
48012

>  <i_f3d_flags>  (308) 
0

>  <s_epik_input>  (308) 
W25IXTFuW2NIXW4oYzEyKWMobm4yKVtDSDJdTjNbQ0gyXVtDSDJdW0NIMl1bQ0gyXTM=

>  <s_epik_cmdline>  (308) 
J2VwaWtfcHl0aG9uJywgJy1waHQnLCAnMi4wJywgJy1waCcsICc3LjAnLCAnLXRuJywgJzgnLCAnLW1hJywgJzIwMCcsICctaW1hZScsICc8aW5maWxlLm1hZT4nLCAnLW9tYWUnLCAnPG91dGZpbGUubWFlPic=

>  <r_epik_Ionization_Penalty>  (308) 
0.202154

>  <r_epik_Ionization_Penalty_Charging>  (308) 
0.202154

>  <r_epik_Ionization_Penalty_Neutral>  (308) 
1.2479e-09

>  <r_epik_State_Penalty>  (308) 
0.192036

>  <r_epik_Charging_Adjusted_Penalty>  (308) 
0.39419

>  <i_epik_Tot_Q>  (308) 
1

>  <i_epik_Tot_abs_Q>  (308) 
1

>  <s_lp_Force_Field>  (308) 
OPLS3e

>  <r_lp_Energy>  (308) 
14.0808

>  <b_lp_Chiralities_Consistent>  (308) 
1

>  <s_lp_Variant>  (308) 
109:0-1

>  <s_i_glide_gridfile>  (308) 
pfpi4k_grid

>  <i_i_glide_lignum>  (308) 
32

>  <i_i_glide_rotatable_bonds>  (308) 
2

>  <r_i_docking_score>  (308) 
-3.7333

>  <r_i_glide_ligand_efficiency>  (308) 
-0.266665

>  <r_i_glide_ligand_efficiency_sa>  (308) 
-0.642699

>  <r_i_glide_ligand_efficiency_ln>  (308) 
-1.0259

>  <r_i_glide_gscore>  (308) 
-3.7333

>  <r_i_glide_lipo>  (308) 
-0.300066

>  <r_i_glide_hbond>  (308) 
-0.2

>  <r_i_glide_metal>  (308) 
-0

>  <r_i_glide_rewards>  (308) 
-2.09162

>  <r_i_glide_evdw>  (308) 
-20.0399

>  <r_i_glide_ecoul>  (308) 
-5.52826

>  <r_i_glide_erotb>  (308) 
0.864802

>  <r_i_glide_esite>  (308) 
-0.175184

>  <r_i_glide_emodel>  (308) 
-29.2223

>  <r_i_glide_energy>  (308) 
-25.5682

>  <r_i_glide_einternal>  (308) 
0.921302

>  <r_i_glide_intrahb_reward>  (308) 
-0

>  <i_i_glide_confnum>  (308) 
5

>  <i_i_glide_posenum>  (308) 
14

>  <r_i_glide_eff_state_penalty>  (308) 
0

>  <ligand_id>  (308) 
109

>  <original_smiles>  (308) 
c1n[nH]c2nnc(CN3CCCC3)n12

>  <smiles>  (308) 
[H]c1nn([H])c2nnc(C([H])([H])[N+]3([H])C([H])([H])C([H])([H])C([H])([H])C3([H])[H])n12

$$$$
109:1:0
     RDKit          3D

 26 28  0  0  1  0  0  0  0  0999 V2000
   -0.0639    2.4099    4.2733 C   0  0  0  0  0  0  0  0  0  0  0  0
   -0.0999    2.1549    2.9385 N   0  0  0  0  0  0  0  0  0  0  0  0
   -0.8029    0.9941    2.8385 N   0  0  0  0  0  0  0  0  0  0  0  0
   -1.1542    0.5652    4.0588 C   0  0  0  0  0  0  0  0  0  0  0  0
   -1.7743   -0.3942    4.6923 N   0  0  0  0  0  0  0  0  0  0  0  0
   -1.6935   -0.0643    6.0768 N   0  0  0  0  0  0  0  0  0  0  0  0
   -1.0126    1.0895    6.1847 C   0  0  0  0  0  0  0  0  0  0  0  0
   -0.6769    1.7803    7.4844 C   0  0  0  0  0  0  0  0  0  0  0  0
   -1.8575    2.0438    8.3106 N   0  0  0  0  0  0  0  0  0  0  0  0
   -2.6987    3.0943    7.7555 C   0  0  0  0  0  0  0  0  0  0  0  0
   -3.6150    3.4959    8.9131 C   0  0  0  0  0  0  0  0  0  0  0  0
   -2.8343    3.1302   10.1664 C   0  0  0  0  0  0  0  0  0  0  0  0
   -1.5214    2.5426    9.6419 C   0  0  0  0  0  0  0  0  0  0  0  0
   -0.7042    1.4393    4.9442 N   0  0  0  0  0  0  0  0  0  0  0  0
   -1.0357    0.5467    1.9663 H   0  0  0  0  0  0  0  0  0  0  0  0
    0.4016    3.2541    4.7914 H   0  0  0  0  0  0  0  0  0  0  0  0
   -0.0430    1.0955    8.0448 H   0  0  0  0  0  0  0  0  0  0  0  0
   -0.0923    2.6887    7.3169 H   0  0  0  0  0  0  0  0  0  0  0  0
   -2.0742    3.9434    7.4719 H   0  0  0  0  0  0  0  0  0  0  0  0
   -3.2550    2.7596    6.8790 H   0  0  0  0  0  0  0  0  0  0  0  0
   -3.8580    4.5566    8.8793 H   0  0  0  0  0  0  0  0  0  0  0  0
   -4.5551    2.9457    8.8814 H   0  0  0  0  0  0  0  0  0  0  0  0
   -2.6572    3.9876   10.8156 H   0  0  0  0  0  0  0  0  0  0  0  0
   -3.3812    2.3941   10.7555 H   0  0  0  0  0  0  0  0  0  0  0  0
   -1.1359    1.7591   10.2981 H   0  0  0  0  0  0  0  0  0  0  0  0
   -0.7688    3.3298    9.5685 H   0  0  0  0  0  0  0  0  0  0  0  0
  1 14  1  0
  1  2  2  0
  1 16  1  0
  2  3  1  0
  3 15  1  0
  3  4  1  0
  4 14  1  0
  4  5  2  0
  5  6  1  0
  6  7  2  0
  7  8  1  0
  7 14  1  0
  8  9  1  0
  8 17  1  0
  8 18  1  0
  9 13  1  0
  9 10  1  0
 10 11  1  0
 10 19  1  0
 10 20  1  0
 11 12  1  0
 11 21  1  0
 11 22  1  0
 12 13  1  0
 12 23  1  0
 12 24  1  0
 13 25  1  0
 13 26  1  0
M  END
>  <i_m_ct_stereo_status>  (309) 
1

>  <s_m_source_file>  (309) 
/var/tmp/pbs.5076255.sched01/tmp7yh4k8o6/114t33l0ocj.sdf

>  <i_m_source_file_index>  (309) 
33

>  <i_lp_mmshare_version>  (309) 
48012

>  <i_f3d_flags>  (309) 
0

>  <s_epik_input>  (309) 
W25IXTFuW2NIXW4oYzEyKWMobm4yKVtDSDJdTjNbQ0gyXVtDSDJdW0NIMl1bQ0gyXTM=

>  <s_epik_cmdline>  (309) 
J2VwaWtfcHl0aG9uJywgJy1waHQnLCAnMi4wJywgJy1waCcsICc3LjAnLCAnLXRuJywgJzgnLCAnLW1hJywgJzIwMCcsICctaW1hZScsICc8aW5maWxlLm1hZT4nLCAnLW9tYWUnLCAnPG91dGZpbGUubWFlPic=

>  <r_epik_Ionization_Penalty>  (309) 
0.735307

>  <r_epik_Ionization_Penalty_Charging>  (309) 
0

>  <r_epik_Ionization_Penalty_Neutral>  (309) 
0.735307

>  <r_epik_State_Penalty>  (309) 
0.760948

>  <r_epik_Charging_Adjusted_Penalty>  (309) 
0.760948

>  <i_epik_Tot_Q>  (309) 
0

>  <i_epik_Tot_abs_Q>  (309) 
0

>  <s_lp_Force_Field>  (309) 
OPLS3e

>  <r_lp_Energy>  (309) 
8.43403

>  <b_lp_Chiralities_Consistent>  (309) 
1

>  <s_lp_Variant>  (309) 
109:0-2

>  <s_i_glide_gridfile>  (309) 
pfpi4k_grid

>  <i_i_glide_lignum>  (309) 
33

>  <i_i_glide_rotatable_bonds>  (309) 
2

>  <r_i_docking_score>  (309) 
-3.17621

>  <r_i_glide_ligand_efficiency>  (309) 
-0.226872

>  <r_i_glide_ligand_efficiency_sa>  (309) 
-0.546794

>  <r_i_glide_ligand_efficiency_ln>  (309) 
-0.87281

>  <r_i_glide_gscore>  (309) 
-3.17621

>  <r_i_glide_lipo>  (309) 
-0.193506

>  <r_i_glide_hbond>  (309) 
0

>  <r_i_glide_metal>  (309) 
-0

>  <r_i_glide_rewards>  (309) 
-2.09849

>  <r_i_glide_evdw>  (309) 
-19.0365

>  <r_i_glide_ecoul>  (309) 
-3.36915

>  <r_i_glide_erotb>  (309) 
0.872335

>  <r_i_glide_esite>  (309) 
-0.299348

>  <r_i_glide_emodel>  (309) 
-27.4184

>  <r_i_glide_energy>  (309) 
-22.4056

>  <r_i_glide_einternal>  (309) 
0.177073

>  <r_i_glide_intrahb_reward>  (309) 
-0

>  <i_i_glide_confnum>  (309) 
1

>  <i_i_glide_posenum>  (309) 
11

>  <r_i_glide_eff_state_penalty>  (309) 
0

>  <ligand_id>  (309) 
109

>  <original_smiles>  (309) 
c1n[nH]c2nnc(CN3CCCC3)n12

>  <smiles>  (309) 
[H]c1nn([H])c2nnc(C([H])([H])N3C([H])([H])C([H])([H])C([H])([H])C3([H])[H])n12

$$$$
109:1:1
     RDKit          3D

 26 28  0  0  1  0  0  0  0  0999 V2000
   -0.2781    2.1547    3.5609 C   0  0  0  0  0  0  0  0  0  0  0  0
    0.4025    1.4673    2.6039 N   0  0  0  0  0  0  0  0  0  0  0  0
    0.2124    0.1564    2.9295 N   0  0  0  0  0  0  0  0  0  0  0  0
   -0.5517    0.0724    4.0308 C   0  0  0  0  0  0  0  0  0  0  0  0
   -1.1041   -0.7958    4.8422 N   0  0  0  0  0  0  0  0  0  0  0  0
   -1.7878   -0.0117    5.8191 N   0  0  0  0  0  0  0  0  0  0  0  0
   -1.5802    1.2897    5.5243 C   0  0  0  0  0  0  0  0  0  0  0  0
   -2.1224    2.4677    6.3102 C   0  0  0  0  0  0  0  0  0  0  0  0
   -2.2394    2.1861    7.7498 N   0  0  0  0  0  0  0  0  0  0  0  0
   -0.9490    2.2473    8.4192 C   0  0  0  0  0  0  0  0  0  0  0  0
   -1.2913    2.3415    9.9094 C   0  0  0  0  0  0  0  0  0  0  0  0
   -2.6894    2.9436    9.9433 C   0  0  0  0  0  0  0  0  0  0  0  0
   -3.0474    3.1613    8.4683 C   0  0  0  0  0  0  0  0  0  0  0  0
   -0.8413    1.2936    4.4221 N   0  0  0  0  0  0  0  0  0  0  0  0
    0.5831   -0.6290    2.4142 H   0  0  0  0  0  0  0  0  0  0  0  0
   -0.3818    3.2310    3.6719 H   0  0  0  0  0  0  0  0  0  0  0  0
   -1.5195    3.3608    6.1404 H   0  0  0  0  0  0  0  0  0  0  0  0
   -3.1173    2.6775    5.9263 H   0  0  0  0  0  0  0  0  0  0  0  0
   -0.3108    1.3930    8.1871 H   0  0  0  0  0  0  0  0  0  0  0  0
   -0.4297    3.1574    8.1171 H   0  0  0  0  0  0  0  0  0  0  0  0
   -1.2919    1.3557   10.3740 H   0  0  0  0  0  0  0  0  0  0  0  0
   -0.5676    2.9552   10.4459 H   0  0  0  0  0  0  0  0  0  0  0  0
   -3.3811    2.2484   10.4210 H   0  0  0  0  0  0  0  0  0  0  0  0
   -2.7277    3.8738   10.5105 H   0  0  0  0  0  0  0  0  0  0  0  0
   -2.7678    4.1711    8.1664 H   0  0  0  0  0  0  0  0  0  0  0  0
   -4.1164    3.0274    8.2904 H   0  0  0  0  0  0  0  0  0  0  0  0
  1 14  1  0
  1  2  2  0
  1 16  1  0
  2  3  1  0
  3 15  1  0
  3  4  1  0
  4 14  1  0
  4  5  2  0
  5  6  1  0
  6  7  2  0
  7  8  1  0
  7 14  1  0
  8  9  1  0
  8 17  1  0
  8 18  1  0
  9 13  1  0
  9 10  1  0
 10 11  1  0
 10 19  1  0
 10 20  1  0
 11 12  1  0
 11 21  1  0
 11 22  1  0
 12 13  1  0
 12 23  1  0
 12 24  1  0
 13 25  1  0
 13 26  1  0
M  END
>  <i_m_ct_stereo_status>  (310) 
1

>  <s_m_source_file>  (310) 
/var/tmp/pbs.5076255.sched01/tmp7yh4k8o6/114t33l0ocj.sdf

>  <i_m_source_file_index>  (310) 
33

>  <i_lp_mmshare_version>  (310) 
48012

>  <i_f3d_flags>  (310) 
0

>  <s_epik_input>  (310) 
W25IXTFuW2NIXW4oYzEyKWMobm4yKVtDSDJdTjNbQ0gyXVtDSDJdW0NIMl1bQ0gyXTM=

>  <s_epik_cmdline>  (310) 
J2VwaWtfcHl0aG9uJywgJy1waHQnLCAnMi4wJywgJy1waCcsICc3LjAnLCAnLXRuJywgJzgnLCAnLW1hJywgJzIwMCcsICctaW1hZScsICc8aW5maWxlLm1hZT4nLCAnLW9tYWUnLCAnPG91dGZpbGUubWFlPic=

>  <r_epik_Ionization_Penalty>  (310) 
0.735307

>  <r_epik_Ionization_Penalty_Charging>  (310) 
0

>  <r_epik_Ionization_Penalty_Neutral>  (310) 
0.735307

>  <r_epik_State_Penalty>  (310) 
0.760948

>  <r_epik_Charging_Adjusted_Penalty>  (310) 
0.760948

>  <i_epik_Tot_Q>  (310) 
0

>  <i_epik_Tot_abs_Q>  (310) 
0

>  <s_lp_Force_Field>  (310) 
OPLS3e

>  <r_lp_Energy>  (310) 
8.43403

>  <b_lp_Chiralities_Consistent>  (310) 
1

>  <s_lp_Variant>  (310) 
109:0-2

>  <s_i_glide_gridfile>  (310) 
pfpi4k_grid

>  <i_i_glide_lignum>  (310) 
33

>  <i_i_glide_rotatable_bonds>  (310) 
2

>  <r_i_docking_score>  (310) 
-3.17201

>  <r_i_glide_ligand_efficiency>  (310) 
-0.226572

>  <r_i_glide_ligand_efficiency_sa>  (310) 
-0.54607

>  <r_i_glide_ligand_efficiency_ln>  (310) 
-0.871656

>  <r_i_glide_gscore>  (310) 
-3.17201

>  <r_i_glide_lipo>  (310) 
-0.142339

>  <r_i_glide_hbond>  (310) 
0

>  <r_i_glide_metal>  (310) 
-0

>  <r_i_glide_rewards>  (310) 
-2.09849

>  <r_i_glide_evdw>  (310) 
-19.2884

>  <r_i_glide_ecoul>  (310) 
-3.83779

>  <r_i_glide_erotb>  (310) 
0.872335

>  <r_i_glide_esite>  (310) 
-0.263423

>  <r_i_glide_emodel>  (310) 
-27.2537

>  <r_i_glide_energy>  (310) 
-23.1262

>  <r_i_glide_einternal>  (310) 
1.77135

>  <r_i_glide_intrahb_reward>  (310) 
-0

>  <i_i_glide_confnum>  (310) 
2

>  <i_i_glide_posenum>  (310) 
14

>  <r_i_glide_eff_state_penalty>  (310) 
0

>  <ligand_id>  (310) 
109

>  <original_smiles>  (310) 
c1n[nH]c2nnc(CN3CCCC3)n12

>  <smiles>  (310) 
[H]c1nn([H])c2nnc(C([H])([H])N3C([H])([H])C([H])([H])C([H])([H])C3([H])[H])n12

$$$$
109:1:2
     RDKit          3D

 26 28  0  0  1  0  0  0  0  0999 V2000
   -1.0678    0.8825    4.1492 C   0  0  0  0  0  0  0  0  0  0  0  0
   -0.5455    0.8234    2.8898 N   0  0  0  0  0  0  0  0  0  0  0  0
   -0.5070    2.1201    2.4804 N   0  0  0  0  0  0  0  0  0  0  0  0
   -0.9931    2.9035    3.4473 C   0  0  0  0  0  0  0  0  0  0  0  0
   -1.2538    4.1433    3.7235 N   0  0  0  0  0  0  0  0  0  0  0  0
   -1.7869    4.1329    5.0483 N   0  0  0  0  0  0  0  0  0  0  0  0
   -1.8121    2.8596    5.4833 C   0  0  0  0  0  0  0  0  0  0  0  0
   -2.3260    2.3886    6.8224 C   0  0  0  0  0  0  0  0  0  0  0  0
   -2.2843    3.4233    7.8602 N   0  0  0  0  0  0  0  0  0  0  0  0
   -0.9288    3.7650    8.2792 C   0  0  0  0  0  0  0  0  0  0  0  0
   -1.1130    4.5494    9.5815 C   0  0  0  0  0  0  0  0  0  0  0  0
   -2.4482    4.0665   10.1305 C   0  0  0  0  0  0  0  0  0  0  0  0
   -2.9391    3.0407    9.1046 C   0  0  0  0  0  0  0  0  0  0  0  0
   -1.3260    2.1491    4.4694 N   0  0  0  0  0  0  0  0  0  0  0  0
   -0.1893    2.5180    1.6032 H   0  0  0  0  0  0  0  0  0  0  0  0
   -1.2676    0.0686    4.8322 H   0  0  0  0  0  0  0  0  0  0  0  0
   -3.3734    2.1166    6.6959 H   0  0  0  0  0  0  0  0  0  0  0  0
   -1.7885    1.4968    7.1531 H   0  0  0  0  0  0  0  0  0  0  0  0
   -0.3684    2.8504    8.4803 H   0  0  0  0  0  0  0  0  0  0  0  0
   -0.3904    4.3435    7.5273 H   0  0  0  0  0  0  0  0  0  0  0  0
   -0.2925    4.3699   10.2765 H   0  0  0  0  0  0  0  0  0  0  0  0
   -1.1527    5.6218    9.3866 H   0  0  0  0  0  0  0  0  0  0  0  0
   -2.3578    3.6265   11.1255 H   0  0  0  0  0  0  0  0  0  0  0  0
   -3.1392    4.9052   10.2006 H   0  0  0  0  0  0  0  0  0  0  0  0
   -4.0279    3.0355    9.0211 H   0  0  0  0  0  0  0  0  0  0  0  0
   -2.6062    2.0465    9.4051 H   0  0  0  0  0  0  0  0  0  0  0  0
  1 14  1  0
  1  2  2  0
  1 16  1  0
  2  3  1  0
  3 15  1  0
  3  4  1  0
  4 14  1  0
  4  5  2  0
  5  6  1  0
  6  7  2  0
  7  8  1  0
  7 14  1  0
  8  9  1  0
  8 17  1  0
  8 18  1  0
  9 13  1  0
  9 10  1  0
 10 11  1  0
 10 19  1  0
 10 20  1  0
 11 12  1  0
 11 21  1  0
 11 22  1  0
 12 13  1  0
 12 23  1  0
 12 24  1  0
 13 25  1  0
 13 26  1  0
M  END
>  <i_m_ct_stereo_status>  (311) 
1

>  <s_m_source_file>  (311) 
/var/tmp/pbs.5076255.sched01/tmp7yh4k8o6/114t33l0ocj.sdf

>  <i_m_source_file_index>  (311) 
33

>  <i_lp_mmshare_version>  (311) 
48012

>  <i_f3d_flags>  (311) 
0

>  <s_epik_input>  (311) 
W25IXTFuW2NIXW4oYzEyKWMobm4yKVtDSDJdTjNbQ0gyXVtDSDJdW0NIMl1bQ0gyXTM=

>  <s_epik_cmdline>  (311) 
J2VwaWtfcHl0aG9uJywgJy1waHQnLCAnMi4wJywgJy1waCcsICc3LjAnLCAnLXRuJywgJzgnLCAnLW1hJywgJzIwMCcsICctaW1hZScsICc8aW5maWxlLm1hZT4nLCAnLW9tYWUnLCAnPG91dGZpbGUubWFlPic=

>  <r_epik_Ionization_Penalty>  (311) 
0.735307

>  <r_epik_Ionization_Penalty_Charging>  (311) 
0

>  <r_epik_Ionization_Penalty_Neutral>  (311) 
0.735307

>  <r_epik_State_Penalty>  (311) 
0.760948

>  <r_epik_Charging_Adjusted_Penalty>  (311) 
0.760948

>  <i_epik_Tot_Q>  (311) 
0

>  <i_epik_Tot_abs_Q>  (311) 
0

>  <s_lp_Force_Field>  (311) 
OPLS3e

>  <r_lp_Energy>  (311) 
8.43403

>  <b_lp_Chiralities_Consistent>  (311) 
1

>  <s_lp_Variant>  (311) 
109:0-2

>  <s_i_glide_gridfile>  (311) 
pfpi4k_grid

>  <i_i_glide_lignum>  (311) 
33

>  <i_i_glide_rotatable_bonds>  (311) 
2

>  <r_i_docking_score>  (311) 
-3.14199

>  <r_i_glide_ligand_efficiency>  (311) 
-0.224428

>  <r_i_glide_ligand_efficiency_sa>  (311) 
-0.540903

>  <r_i_glide_ligand_efficiency_ln>  (311) 
-0.863408

>  <r_i_glide_gscore>  (311) 
-3.14199

>  <r_i_glide_lipo>  (311) 
-0.0661902

>  <r_i_glide_hbond>  (311) 
-0.128792

>  <r_i_glide_metal>  (311) 
-0

>  <r_i_glide_rewards>  (311) 
-2.13995

>  <r_i_glide_evdw>  (311) 
-17.5634

>  <r_i_glide_ecoul>  (311) 
-3.05983

>  <r_i_glide_erotb>  (311) 
0.872335

>  <r_i_glide_esite>  (311) 
-0.342251

>  <r_i_glide_emodel>  (311) 
-25.1622

>  <r_i_glide_energy>  (311) 
-20.6232

>  <r_i_glide_einternal>  (311) 
0.624708

>  <r_i_glide_intrahb_reward>  (311) 
-0

>  <i_i_glide_confnum>  (311) 
1

>  <i_i_glide_posenum>  (311) 
19

>  <r_i_glide_eff_state_penalty>  (311) 
0

>  <ligand_id>  (311) 
109

>  <original_smiles>  (311) 
c1n[nH]c2nnc(CN3CCCC3)n12

>  <smiles>  (311) 
[H]c1nn([H])c2nnc(C([H])([H])N3C([H])([H])C([H])([H])C([H])([H])C3([H])[H])n12

$$$$
110:0:0
     RDKit          3D

 68 74  0  0  1  0  0  0  0  0999 V2000
    1.4744   -0.0132    2.0472 C   0  0  0  0  0  0  0  0  0  0  0  0
    1.4101    0.8783    3.3147 C   0  0  2  0  0  0  0  0  0  0  0  0
    2.7081    1.7763    3.2290 C   0  0  0  0  0  0  0  0  0  0  0  0
    3.1408    2.6075    4.2559 C   0  0  0  0  0  0  0  0  0  0  0  0
    2.2990    3.0217    5.5264 C   0  0  2  0  0  0  0  0  0  0  0  0
    2.6024    2.1167    6.8199 C   0  0  2  0  0  0  0  0  0  0  0  0
    3.5724    1.2200    6.2765 O   0  0  0  0  0  0  0  0  0  0  0  0
    2.4708    0.3606    5.9924 C   0  0  2  0  0  0  0  0  0  0  0  0
    1.8848   -0.1325    4.6291 C   0  0  1  0  0  0  0  0  0  0  0  0
    1.2989   -1.5134    5.2024 C   0  0  0  0  0  0  0  0  0  0  0  0
    1.1900   -1.7060    6.8235 C   0  0  0  0  0  0  0  0  0  0  0  0
    1.7530   -0.5479    7.8402 C   0  0  0  0  0  0  0  0  0  0  0  0
    1.6328    0.9265    7.2578 C   0  0  1  0  0  0  0  0  0  0  0  0
    0.0851    1.3904    7.6353 C   0  0  2  0  0  0  0  0  0  0  0  0
   -0.8029    0.9752    6.5784 C   0  0  1  0  0  0  0  0  0  0  0  0
   -2.1814    0.7483    6.8516 O   0  0  0  0  0  0  0  0  0  0  0  0
   -0.3586    1.5339    5.2031 C   0  0  1  0  0  0  0  0  0  0  0  0
   -1.0261    0.0934    4.5147 C   0  0  0  0  0  0  0  0  0  0  0  0
   -1.1371    2.3576    4.3715 C   0  0  2  0  0  0  0  0  0  0  0  0
   -0.0837    1.8016    3.0634 C   0  0  0  0  0  0  0  0  0  0  0  0
   -1.2671    3.6191    5.4973 C   0  0  1  0  0  0  0  0  0  0  0  0
   -1.5718    3.5130    7.0790 C   0  0  1  0  0  0  0  0  0  0  0  0
   -2.9645    3.2407    7.2219 O   0  0  0  0  0  0  0  0  0  0  0  0
   -0.5704    2.7568    8.1597 C   0  0  0  0  0  0  0  0  0  0  0  0
   -1.4916    2.4269    9.3888 C   0  0  0  0  0  0  0  0  0  0  0  0
    0.4973    3.6245    8.8786 C   0  0  0  0  0  0  0  0  0  0  0  0
    0.0111    4.2963    5.5661 C   0  0  1  0  0  0  0  0  0  0  0  0
    0.5614    5.1453    6.5515 O   0  0  0  0  0  0  0  0  0  0  0  0
    0.7483    3.0835    5.0381 C   0  0  1  0  0  0  0  0  0  0  0  0
    0.9976    4.0835    3.6951 C   0  0  0  0  0  0  0  0  0  0  0  0
    0.7086   -0.7816    2.0330 H   0  0  0  0  0  0  0  0  0  0  0  0
    2.4260   -0.5312    1.9310 H   0  0  0  0  0  0  0  0  0  0  0  0
    1.3308    0.5734    1.1394 H   0  0  0  0  0  0  0  0  0  0  0  0
    3.3309    1.6856    2.3667 H   0  0  0  0  0  0  0  0  0  0  0  0
    2.4206    2.1221    4.7049 H   0  0  0  0  0  0  0  0  0  0  0  0
    2.6482    4.0332    5.7513 H   0  0  0  0  0  0  0  0  0  0  0  0
    3.0508    2.6646    7.6329 H   0  0  0  0  0  0  0  0  0  0  0  0
    3.1545   -0.5044    6.1532 H   0  0  0  0  0  0  0  0  0  0  0  0
    2.7747   -0.5319    4.1309 H   0  0  0  0  0  0  0  0  0  0  0  0
    0.4782   -1.9683    4.6459 H   0  0  0  0  0  0  0  0  0  0  0  0
    2.0617   -2.2487    4.9465 H   0  0  0  0  0  0  0  0  0  0  0  0
    0.1572   -1.9555    7.0845 H   0  0  0  0  0  0  0  0  0  0  0  0
    1.7091   -2.6403    7.0736 H   0  0  0  0  0  0  0  0  0  0  0  0
    1.2723   -0.6753    8.8038 H   0  0  0  0  0  0  0  0  0  0  0  0
    2.7819   -0.7879    8.1193 H   0  0  0  0  0  0  0  0  0  0  0  0
   -0.1424    0.7523    8.4856 H   0  0  0  0  0  0  0  0  0  0  0  0
   -0.5269   -0.0499    6.7038 H   0  0  0  0  0  0  0  0  0  0  0  0
   -2.6341    1.5957    6.8274 H   0  0  0  0  0  0  0  0  0  0  0  0
   -0.5607   -0.4136    3.6891 H   0  0  0  0  0  0  0  0  0  0  0  0
   -2.0513    0.1777    4.1660 H   0  0  0  0  0  0  0  0  0  0  0  0
   -1.2147   -0.7958    5.1110 H   0  0  0  0  0  0  0  0  0  0  0  0
   -2.1825    2.1253    4.1532 H   0  0  0  0  0  0  0  0  0  0  0  0
    0.0029    2.5096    2.2392 H   0  0  0  0  0  0  0  0  0  0  0  0
   -0.7270    1.1948    2.4299 H   0  0  0  0  0  0  0  0  0  0  0  0
   -2.0300    4.2868    5.0901 H   0  0  0  0  0  0  0  0  0  0  0  0
   -1.6084    4.5371    7.4505 H   0  0  0  0  0  0  0  0  0  0  0  0
   -3.2173    3.4405    8.1168 H   0  0  0  0  0  0  0  0  0  0  0  0
   -1.9464    3.3280    9.7992 H   0  0  0  0  0  0  0  0  0  0  0  0
   -0.9493    1.9568   10.2109 H   0  0  0  0  0  0  0  0  0  0  0  0
   -2.3059    1.7440    9.1582 H   0  0  0  0  0  0  0  0  0  0  0  0
    0.0899    4.5912    9.1745 H   0  0  0  0  0  0  0  0  0  0  0  0
    1.3901    3.8152    8.3006 H   0  0  0  0  0  0  0  0  0  0  0  0
    0.8720    3.1486    9.7861 H   0  0  0  0  0  0  0  0  0  0  0  0
   -0.2663    5.1891    5.0075 H   0  0  0  0  0  0  0  0  0  0  0  0
    1.3627    5.5190    6.2049 H   0  0  0  0  0  0  0  0  0  0  0  0
    0.0796    4.4348    3.2020 H   0  0  0  0  0  0  0  0  0  0  0  0
    1.5200    3.7591    2.8031 H   0  0  0  0  0  0  0  0  0  0  0  0
    1.5871    4.9776    3.9330 H   0  0  0  0  0  0  0  0  0  0  0  0
  2  1  1  6
  1 31  1  0
  1 32  1  0
  1 33  1  0
  2  9  1  0
  2 20  1  0
  2  3  1  0
  3  4  2  3
  3 34  1  0
  4  5  1  0
  4 35  1  0
  5 29  1  0
  5  6  1  0
  5 36  1  1
  6 13  1  0
  6  7  1  0
  6 37  1  1
  7  8  1  0
  8 13  1  0
  8  9  1  0
  8 38  1  1
  9 10  1  0
  9 39  1  6
 10 11  1  0
 10 40  1  0
 10 41  1  0
 11 12  1  0
 11 42  1  0
 11 43  1  0
 13 12  1  1
 12 44  1  0
 12 45  1  0
 13 14  1  0
 14 24  1  0
 14 15  1  0
 14 46  1  1
 15 16  1  0
 15 17  1  0
 15 47  1  6
 16 48  1  0
 17 29  1  0
 17 18  1  6
 17 19  1  0
 18 49  1  0
 18 50  1  0
 18 51  1  0
 19 20  1  0
 19 21  1  0
 19 52  1  6
 20 53  1  0
 20 54  1  0
 21 22  1  0
 21 27  1  0
 21 55  1  6
 22 23  1  0
 22 24  1  0
 22 56  1  1
 23 57  1  0
 24 25  1  0
 24 26  1  0
 25 58  1  0
 25 59  1  0
 25 60  1  0
 26 61  1  0
 26 62  1  0
 26 63  1  0
 27 28  1  0
 27 29  1  0
 27 64  1  6
 28 65  1  0
 29 30  1  6
 30 66  1  0
 30 67  1  0
 30 68  1  0
M  END
>  <i_m_ct_stereo_status>  (312) 
1

>  <s_m_source_file>  (312) 
/var/tmp/pbs.5076255.sched01/tmp7yh4k8o6/114t33l0ocj.sdf

>  <i_m_source_file_index>  (312) 
34

>  <i_lp_mmshare_version>  (312) 
48012

>  <i_f3d_flags>  (312) 
3

>  <s_epik_input>  (312) 
W0NIMl0xW0NIMl1bQ0gyXVtDQEhdKFtDQEBIXTJPMylbQ0BAXShbQ0gzXSkoL1tDSF09W0NIXVw0KVtDSDJdW0NASF0oW0NAQF01KFtDSDNdKVtDQF02KFtDSDNdKVtDQEBIXTRbQ0BASF0zW0NAQF0xMjcpW0NAQEhdKFtDQEhdNltPSF0pW0NAQEhdKFtPSF0pQyhbQ0gzXSkoW0NIM10pW0NASF03W0NASF01W09IXQ==

>  <s_epik_cmdline>  (312) 
J2VwaWtfcHl0aG9uJywgJy1waHQnLCAnMi4wJywgJy1waCcsICc3LjAnLCAnLXRuJywgJzgnLCAnLW1hJywgJzIwMCcsICctaW1hZScsICc8aW5maWxlLm1hZT4nLCAnLW9tYWUnLCAnPG91dGZpbGUubWFlPic=

>  <r_lp_tautomer_probability>  (312) 
1

>  <r_epik_Ionization_Penalty>  (312) 
1.50232e-06

>  <r_epik_Ionization_Penalty_Charging>  (312) 
0

>  <r_epik_Ionization_Penalty_Neutral>  (312) 
1.50232e-06

>  <r_epik_State_Penalty>  (312) 
-0

>  <r_epik_Charging_Adjusted_Penalty>  (312) 
0

>  <i_epik_Tot_Q>  (312) 
0

>  <i_epik_Tot_abs_Q>  (312) 
0

>  <s_lp_Force_Field>  (312) 
OPLS3e

>  <r_lp_Energy>  (312) 
663.896

>  <b_lp_Chiralities_Consistent>  (312) 
0

>  <s_lp_Variant>  (312) 
110:0-1

>  <s_i_glide_gridfile>  (312) 
pfpi4k_grid

>  <i_i_glide_lignum>  (312) 
34

>  <i_i_glide_rotatable_bonds>  (312) 
3

>  <r_i_docking_score>  (312) 
-2.64659

>  <r_i_glide_ligand_efficiency>  (312) 
-0.0882197

>  <r_i_glide_ligand_efficiency_sa>  (312) 
-0.274119

>  <r_i_glide_ligand_efficiency_ln>  (312) 
-0.601334

>  <r_i_glide_gscore>  (312) 
-2.64659

>  <r_i_glide_lipo>  (312) 
-0.0402247

>  <r_i_glide_hbond>  (312) 
0

>  <r_i_glide_metal>  (312) 
-0

>  <r_i_glide_rewards>  (312) 
-0.582426

>  <r_i_glide_evdw>  (312) 
-21.9785

>  <r_i_glide_ecoul>  (312) 
-6.16677

>  <r_i_glide_erotb>  (312) 
0

>  <r_i_glide_esite>  (312) 
0

>  <r_i_glide_emodel>  (312) 
-31.7851

>  <r_i_glide_energy>  (312) 
-28.1452

>  <r_i_glide_einternal>  (312) 
0.705455

>  <r_i_glide_intrahb_reward>  (312) 
-0

>  <i_i_glide_confnum>  (312) 
1

>  <i_i_glide_posenum>  (312) 
18

>  <r_i_glide_eff_state_penalty>  (312) 
0

>  <ligand_id>  (312) 
110

>  <original_smiles>  (312) 
CC12C=CC3C4OC5C1CCCC54C1C(O)C4(C)C(C2)C(C(O)C1(C)C)C(O)C34C

>  <smiles>  (312) 
[H]OC1([H])C2([H])C([H])(O[H])C3(C([H])([H])[H])C4([H])C([H])=C([H])C5(C([H])([H])[H])C([H])([H])C2([H])C3(C([H])([H])[H])C([H])(O[H])C([H])(C1(C([H])([H])[H])C([H])([H])[H])C12C([H])([H])C([H])([H])C([H])([H])C5([H])C1([H])OC42[H]

$$$$
110:0:1
     RDKit          3D

 68 74  0  0  1  0  0  0  0  0999 V2000
    1.9225   -1.7331    2.5988 C   0  0  0  0  0  0  0  0  0  0  0  0
    1.7918   -0.5429    3.5758 C   0  0  2  0  0  0  0  0  0  0  0  0
    3.1949    0.2155    3.4552 C   0  0  0  0  0  0  0  0  0  0  0  0
    3.5813    1.2579    4.2585 C   0  0  0  0  0  0  0  0  0  0  0  0
    2.6498    2.1063    5.2649 C   0  0  2  0  0  0  0  0  0  0  0  0
    2.6834    1.5274    6.7891 C   0  0  2  0  0  0  0  0  0  0  0  0
    3.6044    0.4443    6.6227 O   0  0  0  0  0  0  0  0  0  0  0  0
    2.4683   -0.3726    6.4125 C   0  0  2  0  0  0  0  0  0  0  0  0
    2.0057   -1.1795    5.1662 C   0  0  1  0  0  0  0  0  0  0  0  0
    1.2149   -2.3093    5.9776 C   0  0  0  0  0  0  0  0  0  0  0  0
    0.8919   -2.0420    7.5585 C   0  0  0  0  0  0  0  0  0  0  0  0
    1.4415   -0.7004    8.3200 C   0  0  0  0  0  0  0  0  0  0  0  0
    1.5549    0.5457    7.3689 C   0  0  1  0  0  0  0  0  0  0  0  0
    0.0361    1.2141    7.3801 C   0  0  2  0  0  0  0  0  0  0  0  0
   -0.7682    0.5991    6.3481 C   0  0  1  0  0  0  0  0  0  0  0  0
   -2.1824    0.5395    6.4845 O   0  0  0  0  0  0  0  0  0  0  0  0
   -0.1112    0.7283    4.9509 C   0  0  1  0  0  0  0  0  0  0  0  0
   -0.8336   -0.7933    4.5666 C   0  0  0  0  0  0  0  0  0  0  0  0
   -0.6853    1.3530    3.8369 C   0  0  2  0  0  0  0  0  0  0  0  0
    0.4531    0.3957    2.8839 C   0  0  0  0  0  0  0  0  0  0  0  0
   -0.8178    2.8828    4.5639 C   0  0  1  0  0  0  0  0  0  0  0  0
   -1.3153    3.2271    6.0548 C   0  0  1  0  0  0  0  0  0  0  0  0
   -2.7375    3.0977    6.0654 O   0  0  0  0  0  0  0  0  0  0  0  0
   -0.5375    2.7200    7.4294 C   0  0  0  0  0  0  0  0  0  0  0  0
   -1.6355    2.7999    8.5553 C   0  0  0  0  0  0  0  0  0  0  0  0
    0.5164    3.6751    8.0474 C   0  0  0  0  0  0  0  0  0  0  0  0
    0.4959    3.4640    4.6339 C   0  0  1  0  0  0  0  0  0  0  0  0
    1.0260    4.5003    5.4414 O   0  0  0  0  0  0  0  0  0  0  0  0
    1.1803    2.1072    4.5560 C   0  0  1  0  0  0  0  0  0  0  0  0
    1.6915    2.6733    3.0541 C   0  0  0  0  0  0  0  0  0  0  0  0
    1.0901   -2.4216    2.6758 H   0  0  0  0  0  0  0  0  0  0  0  0
    2.8234   -2.3306    2.7612 H   0  0  0  0  0  0  0  0  0  0  0  0
    1.9549   -1.4065    1.5554 H   0  0  0  0  0  0  0  0  0  0  0  0
    3.9033   -0.1545    2.7412 H   0  0  0  0  0  0  0  0  0  0  0  0
    2.8150    0.9574    4.7257 H   0  0  0  0  0  0  0  0  0  0  0  0
    3.0592    3.0813    5.2690 H   0  0  0  0  0  0  0  0  0  0  0  0
    3.0903    2.2438    7.4863 H   0  0  0  0  0  0  0  0  0  0  0  0
    3.0276   -1.2080    6.8956 H   0  0  0  0  0  0  0  0  0  0  0  0
    2.9001   -1.7605    4.9146 H   0  0  0  0  0  0  0  0  0  0  0  0
    0.4189   -2.8400    5.4463 H   0  0  0  0  0  0  0  0  0  0  0  0
    1.9169   -3.1366    6.0362 H   0  0  0  0  0  0  0  0  0  0  0  0
   -0.1881   -2.1462    7.7266 H   0  0  0  0  0  0  0  0  0  0  0  0
    1.2700   -2.9147    8.1173 H   0  0  0  0  0  0  0  0  0  0  0  0
    0.8382   -0.5295    9.1990 H   0  0  0  0  0  0  0  0  0  0  0  0
    2.3946   -0.9269    8.7892 H   0  0  0  0  0  0  0  0  0  0  0  0
   -0.3704    0.8570    8.3212 H   0  0  0  0  0  0  0  0  0  0  0  0
   -0.6113   -0.3683    6.7682 H   0  0  0  0  0  0  0  0  0  0  0  0
   -2.5310    1.3742    6.1779 H   0  0  0  0  0  0  0  0  0  0  0  0
   -0.3240   -1.5292    3.9804 H   0  0  0  0  0  0  0  0  0  0  0  0
   -1.7891   -0.7275    4.0751 H   0  0  0  0  0  0  0  0  0  0  0  0
   -1.1780   -1.4632    5.3392 H   0  0  0  0  0  0  0  0  0  0  0  0
   -1.7102    1.1446    3.5329 H   0  0  0  0  0  0  0  0  0  0  0  0
    0.7166    0.8435    1.9187 H   0  0  0  0  0  0  0  0  0  0  0  0
   -0.1658   -0.3086    2.3380 H   0  0  0  0  0  0  0  0  0  0  0  0
   -1.4439    3.4652    3.8917 H   0  0  0  0  0  0  0  0  0  0  0  0
   -1.2891    4.3129    6.1418 H   0  0  0  0  0  0  0  0  0  0  0  0
   -3.0678    3.4536    6.8796 H   0  0  0  0  0  0  0  0  0  0  0  0
   -2.0382    3.8080    8.6506 H   0  0  0  0  0  0  0  0  0  0  0  0
   -1.2480    2.5330    9.5409 H   0  0  0  0  0  0  0  0  0  0  0  0
   -2.4842    2.1380    8.3962 H   0  0  0  0  0  0  0  0  0  0  0  0
    0.1826    4.7119    8.0218 H   0  0  0  0  0  0  0  0  0  0  0  0
    1.4874    3.6389    7.5739 H   0  0  0  0  0  0  0  0  0  0  0  0
    0.7269    3.4363    9.0910 H   0  0  0  0  0  0  0  0  0  0  0  0
    0.3996    4.1757    3.8314 H   0  0  0  0  0  0  0  0  0  0  0  0
    1.8010    4.8449    5.0104 H   0  0  0  0  0  0  0  0  0  0  0  0
    0.8802    2.9310    2.3571 H   0  0  0  0  0  0  0  0  0  0  0  0
    2.2824    2.0899    2.3645 H   0  0  0  0  0  0  0  0  0  0  0  0
    2.3325    3.5589    3.1335 H   0  0  0  0  0  0  0  0  0  0  0  0
  2  1  1  6
  1 31  1  0
  1 32  1  0
  1 33  1  0
  2  9  1  0
  2 20  1  0
  2  3  1  0
  3  4  2  3
  3 34  1  0
  4  5  1  0
  4 35  1  0
  5 29  1  0
  5  6  1  0
  5 36  1  1
  6 13  1  0
  6  7  1  0
  6 37  1  1
  7  8  1  0
  8 13  1  0
  8  9  1  0
  8 38  1  1
  9 10  1  0
  9 39  1  6
 10 11  1  0
 10 40  1  0
 10 41  1  0
 11 12  1  0
 11 42  1  0
 11 43  1  0
 13 12  1  1
 12 44  1  0
 12 45  1  0
 13 14  1  0
 14 24  1  0
 14 15  1  0
 14 46  1  1
 15 16  1  0
 15 17  1  0
 15 47  1  1
 16 48  1  0
 17 29  1  0
 17 18  1  6
 17 19  1  0
 18 49  1  0
 18 50  1  0
 18 51  1  0
 19 20  1  0
 19 21  1  0
 19 52  1  6
 20 53  1  0
 20 54  1  0
 21 22  1  0
 21 27  1  0
 21 55  1  6
 22 23  1  0
 22 24  1  0
 22 56  1  6
 23 57  1  0
 24 25  1  0
 24 26  1  0
 25 58  1  0
 25 59  1  0
 25 60  1  0
 26 61  1  0
 26 62  1  0
 26 63  1  0
 27 28  1  0
 27 29  1  0
 27 64  1  6
 28 65  1  0
 29 30  1  6
 30 66  1  0
 30 67  1  0
 30 68  1  0
M  END
>  <i_m_ct_stereo_status>  (313) 
1

>  <s_m_source_file>  (313) 
/var/tmp/pbs.5076255.sched01/tmp7yh4k8o6/114t33l0ocj.sdf

>  <i_m_source_file_index>  (313) 
34

>  <i_lp_mmshare_version>  (313) 
48012

>  <i_f3d_flags>  (313) 
3

>  <s_epik_input>  (313) 
W0NIMl0xW0NIMl1bQ0gyXVtDQEhdKFtDQEBIXTJPMylbQ0BAXShbQ0gzXSkoL1tDSF09W0NIXVw0KVtDSDJdW0NASF0oW0NAQF01KFtDSDNdKVtDQF02KFtDSDNdKVtDQEBIXTRbQ0BASF0zW0NAQF0xMjcpW0NAQEhdKFtDQEhdNltPSF0pW0NAQEhdKFtPSF0pQyhbQ0gzXSkoW0NIM10pW0NASF03W0NASF01W09IXQ==

>  <s_epik_cmdline>  (313) 
J2VwaWtfcHl0aG9uJywgJy1waHQnLCAnMi4wJywgJy1waCcsICc3LjAnLCAnLXRuJywgJzgnLCAnLW1hJywgJzIwMCcsICctaW1hZScsICc8aW5maWxlLm1hZT4nLCAnLW9tYWUnLCAnPG91dGZpbGUubWFlPic=

>  <r_lp_tautomer_probability>  (313) 
1

>  <r_epik_Ionization_Penalty>  (313) 
1.50232e-06

>  <r_epik_Ionization_Penalty_Charging>  (313) 
0

>  <r_epik_Ionization_Penalty_Neutral>  (313) 
1.50232e-06

>  <r_epik_State_Penalty>  (313) 
-0

>  <r_epik_Charging_Adjusted_Penalty>  (313) 
0

>  <i_epik_Tot_Q>  (313) 
0

>  <i_epik_Tot_abs_Q>  (313) 
0

>  <s_lp_Force_Field>  (313) 
OPLS3e

>  <r_lp_Energy>  (313) 
663.896

>  <b_lp_Chiralities_Consistent>  (313) 
0

>  <s_lp_Variant>  (313) 
110:0-1

>  <s_i_glide_gridfile>  (313) 
pfpi4k_grid

>  <i_i_glide_lignum>  (313) 
34

>  <i_i_glide_rotatable_bonds>  (313) 
3

>  <r_i_docking_score>  (313) 
-2.48891

>  <r_i_glide_ligand_efficiency>  (313) 
-0.0829638

>  <r_i_glide_ligand_efficiency_sa>  (313) 
-0.257788

>  <r_i_glide_ligand_efficiency_ln>  (313) 
-0.565508

>  <r_i_glide_gscore>  (313) 
-2.48891

>  <r_i_glide_lipo>  (313) 
-0.0121134

>  <r_i_glide_hbond>  (313) 
0

>  <r_i_glide_metal>  (313) 
-0

>  <r_i_glide_rewards>  (313) 
-0.582426

>  <r_i_glide_evdw>  (313) 
-23.0531

>  <r_i_glide_ecoul>  (313) 
-4.94478

>  <r_i_glide_erotb>  (313) 
0

>  <r_i_glide_esite>  (313) 
0

>  <r_i_glide_emodel>  (313) 
-30.7537

>  <r_i_glide_energy>  (313) 
-27.9979

>  <r_i_glide_einternal>  (313) 
0.803326

>  <r_i_glide_intrahb_reward>  (313) 
-0

>  <i_i_glide_confnum>  (313) 
1

>  <i_i_glide_posenum>  (313) 
1

>  <r_i_glide_eff_state_penalty>  (313) 
0

>  <ligand_id>  (313) 
110

>  <original_smiles>  (313) 
CC12C=CC3C4OC5C1CCCC54C1C(O)C4(C)C(C2)C(C(O)C1(C)C)C(O)C34C

>  <smiles>  (313) 
[H]OC1([H])C2([H])C([H])(O[H])C3(C([H])([H])[H])C4([H])C([H])=C([H])C5(C([H])([H])[H])C([H])([H])C2([H])C3(C([H])([H])[H])C([H])(O[H])C([H])(C1(C([H])([H])[H])C([H])([H])[H])C12C([H])([H])C([H])([H])C([H])([H])C5([H])C1([H])OC42[H]

$$$$
110:0:2
     RDKit          3D

 68 74  0  0  1  0  0  0  0  0999 V2000
   -1.2196    2.9790    9.4264 C   0  0  0  0  0  0  0  0  0  0  0  0
   -0.2457    2.9313    8.2135 C   0  0  2  0  0  0  0  0  0  0  0  0
    0.6740    4.1991    8.3988 C   0  0  0  0  0  0  0  0  0  0  0  0
    1.5855    4.6386    7.4373 C   0  0  0  0  0  0  0  0  0  0  0  0
    2.0575    3.8218    6.1732 C   0  0  2  0  0  0  0  0  0  0  0  0
    1.2460    4.1910    4.8313 C   0  0  2  0  0  0  0  0  0  0  0  0
    0.3404    5.1665    5.3464 O   0  0  0  0  0  0  0  0  0  0  0  0
   -0.5600    4.0842    5.5431 C   0  0  2  0  0  0  0  0  0  0  0  0
   -1.1572    3.4722    6.8525 C   0  0  1  0  0  0  0  0  0  0  0  0
   -2.5102    2.9459    6.1707 C   0  0  0  0  0  0  0  0  0  0  0  0
   -2.5899    2.8830    4.5353 C   0  0  0  0  0  0  0  0  0  0  0  0
   -1.3611    3.4477    3.6161 C   0  0  0  0  0  0  0  0  0  0  0  0
    0.0625    3.2651    4.2909 C   0  0  1  0  0  0  0  0  0  0  0  0
    0.5030    1.7171    3.8934 C   0  0  2  0  0  0  0  0  0  0  0  0
    0.0011    0.8085    4.8888 C   0  0  1  0  0  0  0  0  0  0  0  0
   -0.2568   -0.5538    4.5458 O   0  0  0  0  0  0  0  0  0  0  0  0
    0.4813    1.1982    6.3113 C   0  0  1  0  0  0  0  0  0  0  0  0
   -1.0163    0.5552    6.8818 C   0  0  0  0  0  0  0  0  0  0  0  0
    1.2267    0.3713    7.1707 C   0  0  2  0  0  0  0  0  0  0  0  0
    0.6169    1.3998    8.4746 C   0  0  0  0  0  0  0  0  0  0  0  0
    2.5571    0.2379    6.1278 C   0  0  1  0  0  0  0  0  0  0  0  0
    2.5446   -0.0214    4.5352 C   0  0  1  0  0  0  0  0  0  0  0  0
    2.2823   -1.4054    4.3357 O   0  0  0  0  0  0  0  0  0  0  0  0
    1.8775    1.0312    3.4434 C   0  0  0  0  0  0  0  0  0  0  0  0
    1.6057    0.1628    2.1610 C   0  0  0  0  0  0  0  0  0  0  0  0
    2.8076    2.0946    2.8254 C   0  0  0  0  0  0  0  0  0  0  0  0
    3.2699    1.5012    6.1277 C   0  0  1  0  0  0  0  0  0  0  0  0
    4.2094    2.0466    5.2178 O   0  0  0  0  0  0  0  0  0  0  0  0
    2.0493    2.2553    6.6088 C   0  0  1  0  0  0  0  0  0  0  0  0
    2.9629    2.4317    8.0219 C   0  0  0  0  0  0  0  0  0  0  0  0
   -2.0088    2.2380    9.3607 H   0  0  0  0  0  0  0  0  0  0  0  0
   -1.7170    3.9416    9.5369 H   0  0  0  0  0  0  0  0  0  0  0  0
   -0.6985    2.7916   10.3644 H   0  0  0  0  0  0  0  0  0  0  0  0
    0.5450    4.8007    9.2717 H   0  0  0  0  0  0  0  0  0  0  0  0
    1.1163    3.9419    6.9317 H   0  0  0  0  0  0  0  0  0  0  0  0
    3.0887    4.1432    6.0224 H   0  0  0  0  0  0  0  0  0  0  0  0
    1.8572    4.6446    4.0725 H   0  0  0  0  0  0  0  0  0  0  0  0
   -1.3934    4.7926    5.3486 H   0  0  0  0  0  0  0  0  0  0  0  0
   -1.5631    4.3571    7.3538 H   0  0  0  0  0  0  0  0  0  0  0  0
   -3.0224    2.1232    6.6702 H   0  0  0  0  0  0  0  0  0  0  0  0
   -3.2424    3.7177    6.4017 H   0  0  0  0  0  0  0  0  0  0  0  0
   -2.8428    1.8673    4.2179 H   0  0  0  0  0  0  0  0  0  0  0  0
   -3.5011    3.4021    4.2305 H   0  0  0  0  0  0  0  0  0  0  0  0
   -1.4412    2.9963    2.6325 H   0  0  0  0  0  0  0  0  0  0  0  0
   -1.5562    4.4889    3.3528 H   0  0  0  0  0  0  0  0  0  0  0  0
   -0.0819    1.5344    2.9959 H   0  0  0  0  0  0  0  0  0  0  0  0
   -1.0045    1.1154    4.7071 H   0  0  0  0  0  0  0  0  0  0  0  0
   -0.6030   -0.5739    3.6596 H   0  0  0  0  0  0  0  0  0  0  0  0
   -1.5611    1.0052    7.6897 H   0  0  0  0  0  0  0  0  0  0  0  0
   -0.9928   -0.4839    7.1952 H   0  0  0  0  0  0  0  0  0  0  0  0
   -1.8727    0.4135    6.2266 H   0  0  0  0  0  0  0  0  0  0  0  0
    0.9563   -0.6745    7.3412 H   0  0  0  0  0  0  0  0  0  0  0  0
    1.2709    1.4416    9.3453 H   0  0  0  0  0  0  0  0  0  0  0  0
   -0.0472    0.7571    9.0470 H   0  0  0  0  0  0  0  0  0  0  0  0
    3.1805   -0.5571    6.5491 H   0  0  0  0  0  0  0  0  0  0  0  0
    3.5890   -0.0690    4.2250 H   0  0  0  0  0  0  0  0  0  0  0  0
    1.3879   -1.5732    4.6082 H   0  0  0  0  0  0  0  0  0  0  0  0
    2.5210   -0.3034    1.7975 H   0  0  0  0  0  0  0  0  0  0  0  0
    1.2065    0.7457    1.3279 H   0  0  0  0  0  0  0  0  0  0  0  0
    0.8953   -0.6448    2.3187 H   0  0  0  0  0  0  0  0  0  0  0  0
    3.7692    1.6442    2.5814 H   0  0  0  0  0  0  0  0  0  0  0  0
    2.9953    2.9734    3.4277 H   0  0  0  0  0  0  0  0  0  0  0  0
    2.4104    2.5075    1.8957 H   0  0  0  0  0  0  0  0  0  0  0  0
    4.1102    1.1807    6.7383 H   0  0  0  0  0  0  0  0  0  0  0  0
    3.7907    2.1903    4.3784 H   0  0  0  0  0  0  0  0  0  0  0  0
    3.2577    1.4922    8.5078 H   0  0  0  0  0  0  0  0  0  0  0  0
    2.5952    2.9374    8.9070 H   0  0  0  0  0  0  0  0  0  0  0  0
    3.8879    3.0012    7.8574 H   0  0  0  0  0  0  0  0  0  0  0  0
  2  1  1  1
  1 31  1  0
  1 32  1  0
  1 33  1  0
  2  9  1  0
  2 20  1  0
  2  3  1  0
  3  4  2  3
  3 34  1  0
  4  5  1  0
  4 35  1  0
  5 29  1  0
  5  6  1  0
  5 36  1  6
  6 13  1  0
  6  7  1  0
  6 37  1  6
  7  8  1  0
  8 13  1  0
  8  9  1  0
  8 38  1  6
  9 10  1  0
  9 39  1  1
 10 11  1  0
 10 40  1  0
 10 41  1  0
 11 12  1  0
 11 42  1  0
 11 43  1  0
 13 12  1  6
 12 44  1  0
 12 45  1  0
 13 14  1  0
 14 24  1  0
 14 15  1  0
 14 46  1  6
 15 16  1  0
 15 17  1  0
 15 47  1  1
 16 48  1  0
 17 29  1  0
 17 18  1  1
 17 19  1  0
 18 49  1  0
 18 50  1  0
 18 51  1  0
 19 20  1  0
 19 21  1  0
 19 52  1  1
 20 53  1  0
 20 54  1  0
 21 22  1  0
 21 27  1  0
 21 55  1  1
 22 23  1  0
 22 24  1  0
 22 56  1  6
 23 57  1  0
 24 25  1  0
 24 26  1  0
 25 58  1  0
 25 59  1  0
 25 60  1  0
 26 61  1  0
 26 62  1  0
 26 63  1  0
 27 28  1  0
 27 29  1  0
 27 64  1  1
 28 65  1  0
 29 30  1  1
 30 66  1  0
 30 67  1  0
 30 68  1  0
M  END
>  <i_m_ct_stereo_status>  (314) 
1

>  <s_m_source_file>  (314) 
/var/tmp/pbs.5076255.sched01/tmp7yh4k8o6/114t33l0ocj.sdf

>  <i_m_source_file_index>  (314) 
34

>  <i_lp_mmshare_version>  (314) 
48012

>  <i_f3d_flags>  (314) 
3

>  <s_epik_input>  (314) 
W0NIMl0xW0NIMl1bQ0gyXVtDQEhdKFtDQEBIXTJPMylbQ0BAXShbQ0gzXSkoL1tDSF09W0NIXVw0KVtDSDJdW0NASF0oW0NAQF01KFtDSDNdKVtDQF02KFtDSDNdKVtDQEBIXTRbQ0BASF0zW0NAQF0xMjcpW0NAQEhdKFtDQEhdNltPSF0pW0NAQEhdKFtPSF0pQyhbQ0gzXSkoW0NIM10pW0NASF03W0NASF01W09IXQ==

>  <s_epik_cmdline>  (314) 
J2VwaWtfcHl0aG9uJywgJy1waHQnLCAnMi4wJywgJy1waCcsICc3LjAnLCAnLXRuJywgJzgnLCAnLW1hJywgJzIwMCcsICctaW1hZScsICc8aW5maWxlLm1hZT4nLCAnLW9tYWUnLCAnPG91dGZpbGUubWFlPic=

>  <r_lp_tautomer_probability>  (314) 
1

>  <r_epik_Ionization_Penalty>  (314) 
1.50232e-06

>  <r_epik_Ionization_Penalty_Charging>  (314) 
0

>  <r_epik_Ionization_Penalty_Neutral>  (314) 
1.50232e-06

>  <r_epik_State_Penalty>  (314) 
-0

>  <r_epik_Charging_Adjusted_Penalty>  (314) 
0

>  <i_epik_Tot_Q>  (314) 
0

>  <i_epik_Tot_abs_Q>  (314) 
0

>  <s_lp_Force_Field>  (314) 
OPLS3e

>  <r_lp_Energy>  (314) 
663.896

>  <b_lp_Chiralities_Consistent>  (314) 
0

>  <s_lp_Variant>  (314) 
110:0-1

>  <s_i_glide_gridfile>  (314) 
pfpi4k_grid

>  <i_i_glide_lignum>  (314) 
34

>  <i_i_glide_rotatable_bonds>  (314) 
3

>  <r_i_docking_score>  (314) 
-2.40654

>  <r_i_glide_ligand_efficiency>  (314) 
-0.0802179

>  <r_i_glide_ligand_efficiency_sa>  (314) 
-0.249256

>  <r_i_glide_ligand_efficiency_ln>  (314) 
-0.546792

>  <r_i_glide_gscore>  (314) 
-2.40654

>  <r_i_glide_lipo>  (314) 
-0.125583

>  <r_i_glide_hbond>  (314) 
0

>  <r_i_glide_metal>  (314) 
-0

>  <r_i_glide_rewards>  (314) 
-1.08243

>  <r_i_glide_evdw>  (314) 
-18.884

>  <r_i_glide_ecoul>  (314) 
-1.69552

>  <r_i_glide_erotb>  (314) 
0

>  <r_i_glide_esite>  (314) 
0

>  <r_i_glide_emodel>  (314) 
-28.2284

>  <r_i_glide_energy>  (314) 
-20.5795

>  <r_i_glide_einternal>  (314) 
0.445336

>  <r_i_glide_intrahb_reward>  (314) 
-0.5

>  <i_i_glide_confnum>  (314) 
2

>  <i_i_glide_posenum>  (314) 
38

>  <r_i_glide_eff_state_penalty>  (314) 
0

>  <ligand_id>  (314) 
110

>  <original_smiles>  (314) 
CC12C=CC3C4OC5C1CCCC54C1C(O)C4(C)C(C2)C(C(O)C1(C)C)C(O)C34C

>  <smiles>  (314) 
[H]OC1([H])C2([H])C([H])(O[H])C3(C([H])([H])[H])C4([H])C([H])=C([H])C5(C([H])([H])[H])C([H])([H])C2([H])C3(C([H])([H])[H])C([H])(O[H])C([H])(C1(C([H])([H])[H])C([H])([H])[H])C12C([H])([H])C([H])([H])C([H])([H])C5([H])C1([H])OC42[H]

$$$$
112:0:0
     RDKit          3D

 61 65  0  0  1  0  0  0  0  0999 V2000
    2.7054   -2.3102   -3.3499 C   0  0  0  0  0  0  0  0  0  0  0  0
    3.6405   -2.8529   -2.2751 C   0  0  2  0  0  0  0  0  0  0  0  0
    2.8511   -3.4589   -1.1000 C   0  0  0  0  0  0  0  0  0  0  0  0
    3.7637   -3.9934    0.0202 C   0  0  2  0  0  0  0  0  0  0  0  0
    2.8521   -4.5239    0.9755 O   0  0  0  0  0  0  0  0  0  0  0  0
    3.3031   -5.2215    2.1353 C   0  0  2  0  0  0  0  0  0  0  0  0
    4.5111   -6.2042    2.0199 C   0  0  2  0  0  0  0  0  0  0  0  0
    4.0443   -7.4497    2.8257 C   0  0  0  0  0  0  0  0  0  0  0  0
    2.7290   -7.1196    3.5326 C   0  0  1  0  0  0  0  0  0  0  0  0
    2.9628   -6.6670    4.8536 O   0  0  0  0  0  0  0  0  0  0  0  0
    2.0887   -6.0448    2.6475 C   0  0  0  0  0  0  0  0  0  0  0  0
    1.0783   -5.1691    3.4187 C   0  0  0  0  0  0  0  0  0  0  0  0
    1.3559   -6.7660    1.4943 C   0  0  0  0  0  0  0  0  0  0  0  0
    5.8840   -5.6270    2.5039 C   0  0  0  0  0  0  0  0  0  0  0  0
    5.9973   -5.2803    4.0001 C   0  0  0  0  0  0  0  0  0  0  0  0
    7.2908   -5.9051    4.0947 O   0  0  0  0  0  0  0  0  0  0  0  0
    7.0267   -6.6126    2.8702 C   0  0  0  0  0  0  0  0  0  0  0  0
    6.3751   -4.4712    1.5879 C   0  0  1  0  0  0  0  0  0  0  0  0
    6.9757   -4.8592    0.2583 C   0  0  0  0  0  0  0  0  0  0  0  0
    7.4885   -3.7392   -0.4253 O   0  0  0  0  0  0  0  0  0  0  0  0
    6.5748   -3.1533   -1.3279 C   0  0  0  0  0  0  0  0  0  0  0  0
    5.5279   -2.2441   -0.6454 C   0  0  1  0  0  0  0  0  0  0  0  0
    6.2133   -1.0788   -0.2476 O   0  0  0  0  0  0  0  0  0  0  0  0
    4.5696   -1.7411   -1.7470 C   0  0  0  0  0  0  0  0  0  0  0  0
    4.7067   -2.8724    0.5520 C   0  0  1  0  0  0  0  0  0  0  0  0
    3.8936   -1.7944    1.3108 C   0  0  0  0  0  0  0  0  0  0  0  0
    5.5415   -3.3168    1.6262 O   0  0  0  0  0  0  0  0  0  0  0  0
    2.1298   -1.5028   -2.9055 H   0  0  0  0  0  0  0  0  0  0  0  0
    2.0280   -3.0812   -3.7218 H   0  0  0  0  0  0  0  0  0  0  0  0
    3.2560   -1.9035   -4.1984 H   0  0  0  0  0  0  0  0  0  0  0  0
    4.2133   -3.6516   -2.7527 H   0  0  0  0  0  0  0  0  0  0  0  0
    2.1782   -2.7170   -0.6751 H   0  0  0  0  0  0  0  0  0  0  0  0
    2.2111   -4.2629   -1.4644 H   0  0  0  0  0  0  0  0  0  0  0  0
    4.3196   -4.8128   -0.4201 H   0  0  0  0  0  0  0  0  0  0  0  0
    3.5440   -4.4725    2.8827 H   0  0  0  0  0  0  0  0  0  0  0  0
    4.5726   -6.5318    0.9771 H   0  0  0  0  0  0  0  0  0  0  0  0
    3.8776   -8.2766    2.1358 H   0  0  0  0  0  0  0  0  0  0  0  0
    4.7552   -7.8096    3.5626 H   0  0  0  0  0  0  0  0  0  0  0  0
    2.0944   -8.0063    3.6189 H   0  0  0  0  0  0  0  0  0  0  0  0
    3.5599   -5.9264    4.8263 H   0  0  0  0  0  0  0  0  0  0  0  0
    0.2871   -5.7797    3.8553 H   0  0  0  0  0  0  0  0  0  0  0  0
    0.6178   -4.4325    2.7674 H   0  0  0  0  0  0  0  0  0  0  0  0
    1.5468   -4.6135    4.2304 H   0  0  0  0  0  0  0  0  0  0  0  0
    0.6055   -7.4608    1.8858 H   0  0  0  0  0  0  0  0  0  0  0  0
    2.0472   -7.3543    0.8883 H   0  0  0  0  0  0  0  0  0  0  0  0
    0.8484   -6.0738    0.8237 H   0  0  0  0  0  0  0  0  0  0  0  0
    6.0368   -4.2111    4.2080 H   0  0  0  0  0  0  0  0  0  0  0  0
    5.2747   -5.7674    4.6553 H   0  0  0  0  0  0  0  0  0  0  0  0
    6.7175   -7.6470    3.0584 H   0  0  0  0  0  0  0  0  0  0  0  0
    7.9111   -6.5866    2.2235 H   0  0  0  0  0  0  0  0  0  0  0  0
    7.2727   -4.0658    2.0776 H   0  0  0  0  0  0  0  0  0  0  0  0
    7.8464   -5.4889    0.4065 H   0  0  0  0  0  0  0  0  0  0  0  0
    6.2949   -5.4854   -0.3231 H   0  0  0  0  0  0  0  0  0  0  0  0
    7.1471   -2.5805   -2.0580 H   0  0  0  0  0  0  0  0  0  0  0  0
    6.1171   -3.9524   -1.9064 H   0  0  0  0  0  0  0  0  0  0  0  0
    5.6072   -0.5320    0.2433 H   0  0  0  0  0  0  0  0  0  0  0  0
    5.1444   -1.3083   -2.5701 H   0  0  0  0  0  0  0  0  0  0  0  0
    3.9669   -0.9174   -1.3523 H   0  0  0  0  0  0  0  0  0  0  0  0
    3.1607   -1.2758    0.6989 H   0  0  0  0  0  0  0  0  0  0  0  0
    4.5471   -1.0392    1.7456 H   0  0  0  0  0  0  0  0  0  0  0  0
    3.3524   -2.2375    2.1455 H   0  0  0  0  0  0  0  0  0  0  0  0
  1  2  1  0
  1 28  1  0
  1 29  1  0
  1 30  1  0
  2 24  1  0
  2  3  1  0
  2 31  1  6
  3  4  1  0
  3 32  1  0
  3 33  1  0
  4 25  1  0
  4  5  1  0
  4 34  1  6
  5  6  1  0
  6 11  1  0
  6  7  1  0
  6 35  1  1
  7  8  1  0
  7 14  1  0
  7 36  1  6
  8  9  1  0
  8 37  1  0
  8 38  1  0
  9 10  1  0
  9 11  1  0
  9 39  1  1
 10 40  1  0
 11 12  1  0
 11 13  1  0
 12 41  1  0
 12 42  1  0
 12 43  1  0
 13 44  1  0
 13 45  1  0
 13 46  1  0
 14 17  1  0
 14 15  1  0
 14 18  1  0
 15 16  1  0
 15 47  1  0
 15 48  1  0
 16 17  1  0
 17 49  1  0
 17 50  1  0
 18 27  1  0
 18 19  1  0
 18 51  1  1
 19 20  1  0
 19 52  1  0
 19 53  1  0
 20 21  1  0
 21 22  1  0
 21 54  1  0
 21 55  1  0
 22 23  1  1
 22 24  1  0
 22 25  1  0
 23 56  1  0
 24 57  1  0
 24 58  1  0
 25 26  1  1
 25 27  1  0
 26 59  1  0
 26 60  1  0
 26 61  1  0
M  END
>  <i_m_ct_stereo_status>  (315) 
1

>  <s_m_source_file>  (315) 
/var/tmp/pbs.5076255.sched01/tmp7yh4k8o6/114t33l0ocj.sdf

>  <i_m_source_file_index>  (315) 
36

>  <i_lp_mmshare_version>  (315) 
48012

>  <i_f3d_flags>  (315) 
0

>  <s_epik_input>  (315) 
TzFbQ0BASF0yW0NIMl1PW0NIMl1bQ0BAXShbT0hdKShbQ0gyXVtDQEhdKFtDSDNdKVtDSDJdMylbQ0BAXTEoW0NIM10pW0NASF0zT1tDQEBIXShDKFtDSDNdKShbQ0gzXSlbQ0BASF0oW0NIMl00KVtPSF0pW0NASF00QzI1W0NIMl1PW0NIMl01

>  <s_epik_cmdline>  (315) 
J2VwaWtfcHl0aG9uJywgJy1waHQnLCAnMi4wJywgJy1waCcsICc3LjAnLCAnLXRuJywgJzgnLCAnLW1hJywgJzIwMCcsICctaW1hZScsICc8aW5maWxlLm1hZT4nLCAnLW9tYWUnLCAnPG91dGZpbGUubWFlPic=

>  <r_lp_tautomer_probability>  (315) 
1

>  <r_epik_Ionization_Penalty>  (315) 
3.00993e-07

>  <r_epik_Ionization_Penalty_Charging>  (315) 
0

>  <r_epik_Ionization_Penalty_Neutral>  (315) 
3.00993e-07

>  <r_epik_State_Penalty>  (315) 
-0

>  <r_epik_Charging_Adjusted_Penalty>  (315) 
0

>  <i_epik_Tot_Q>  (315) 
0

>  <i_epik_Tot_abs_Q>  (315) 
0

>  <s_lp_Force_Field>  (315) 
OPLS3e

>  <r_lp_Energy>  (315) 
46.886

>  <b_lp_Chiralities_Consistent>  (315) 
1

>  <s_lp_Variant>  (315) 
112:0-1

>  <s_i_glide_gridfile>  (315) 
pfpi4k_grid

>  <i_i_glide_lignum>  (315) 
36

>  <i_i_glide_rotatable_bonds>  (315) 
2

>  <r_i_docking_score>  (315) 
-2.95838

>  <r_i_glide_ligand_efficiency>  (315) 
-0.10957

>  <r_i_glide_ligand_efficiency_sa>  (315) 
-0.328709

>  <r_i_glide_ligand_efficiency_ln>  (315) 
-0.688662

>  <r_i_glide_gscore>  (315) 
-2.95838

>  <r_i_glide_lipo>  (315) 
-0.536661

>  <r_i_glide_hbond>  (315) 
0

>  <r_i_glide_metal>  (315) 
-0

>  <r_i_glide_rewards>  (315) 
-0.801197

>  <r_i_glide_evdw>  (315) 
-24.3433

>  <r_i_glide_ecoul>  (315) 
-2.68904

>  <r_i_glide_erotb>  (315) 
0

>  <r_i_glide_esite>  (315) 
0

>  <r_i_glide_emodel>  (315) 
-32.1685

>  <r_i_glide_energy>  (315) 
-27.0324

>  <r_i_glide_einternal>  (315) 
0.0221897

>  <r_i_glide_intrahb_reward>  (315) 
-0

>  <i_i_glide_confnum>  (315) 
3

>  <i_i_glide_posenum>  (315) 
1

>  <r_i_glide_eff_state_penalty>  (315) 
0

>  <ligand_id>  (315) 
112

>  <original_smiles>  (315) 
CC1CC2OC3C(CC(O)C3(C)C)C3(COC3)C3COCC(O)(C1)C2(C)O3

>  <smiles>  (315) 
[H]OC1([H])C([H])([H])C2([H])C([H])(OC3([H])C([H])([H])C([H])(C([H])([H])[H])C([H])([H])C4(O[H])C([H])([H])OC([H])([H])C([H])(OC34C([H])([H])[H])C23C([H])([H])OC3([H])[H])C1(C([H])([H])[H])C([H])([H])[H]

$$$$
112:0:1
     RDKit          3D

 61 65  0  0  1  0  0  0  0  0999 V2000
    2.9567   -2.1289   -2.8837 C   0  0  0  0  0  0  0  0  0  0  0  0
    3.8289   -2.8220   -1.8324 C   0  0  2  0  0  0  0  0  0  0  0  0
    2.9836   -3.4926   -0.7332 C   0  0  0  0  0  0  0  0  0  0  0  0
    3.8458   -4.1812    0.3459 C   0  0  2  0  0  0  0  0  0  0  0  0
    2.8827   -4.7310    1.2385 O   0  0  0  0  0  0  0  0  0  0  0  0
    3.2590   -5.5579    2.3417 C   0  0  2  0  0  0  0  0  0  0  0  0
    4.3944   -6.6099    2.1550 C   0  0  2  0  0  0  0  0  0  0  0  0
    3.8286   -7.8848    2.8451 C   0  0  0  0  0  0  0  0  0  0  0  0
    2.5236   -7.5266    3.5574 C   0  0  1  0  0  0  0  0  0  0  0  0
    2.7744   -7.1938    4.9074 O   0  0  0  0  0  0  0  0  0  0  0  0
    1.9803   -6.3344    2.7575 C   0  0  0  0  0  0  0  0  0  0  0  0
    1.0119   -5.4520    3.5741 C   0  0  0  0  0  0  0  0  0  0  0  0
    1.2213   -6.9034    1.5373 C   0  0  0  0  0  0  0  0  0  0  0  0
    5.8003   -6.1715    2.7012 C   0  0  0  0  0  0  0  0  0  0  0  0
    5.9062   -5.9559    4.2231 C   0  0  0  0  0  0  0  0  0  0  0  0
    7.1437   -6.6914    4.2862 O   0  0  0  0  0  0  0  0  0  0  0  0
    6.8532   -7.2699    2.9989 C   0  0  0  0  0  0  0  0  0  0  0  0
    6.4022   -4.9871    1.8934 C   0  0  1  0  0  0  0  0  0  0  0  0
    6.9969   -5.3165    0.5223 C   0  0  0  0  0  0  0  0  0  0  0  0
    7.5988   -4.1653   -0.0323 O   0  0  0  0  0  0  0  0  0  0  0  0
    6.7380   -3.4321   -0.8818 C   0  0  0  0  0  0  0  0  0  0  0  0
    5.7484   -2.5137   -0.1395 C   0  0  1  0  0  0  0  0  0  0  0  0
    6.5351   -1.4457    0.3536 O   0  0  0  0  0  0  0  0  0  0  0  0
    4.8403   -1.8437   -1.1999 C   0  0  0  0  0  0  0  0  0  0  0  0
    4.8617   -3.1858    0.9870 C   0  0  1  0  0  0  0  0  0  0  0  0
    4.1112   -2.1231    1.8306 C   0  0  0  0  0  0  0  0  0  0  0  0
    5.6485   -3.7830    2.0181 O   0  0  0  0  0  0  0  0  0  0  0  0
    2.3651   -1.3266   -2.4382 H   0  0  0  0  0  0  0  0  0  0  0  0
    2.2654   -2.8375   -3.3438 H   0  0  0  0  0  0  0  0  0  0  0  0
    3.5661   -1.6944   -3.6781 H   0  0  0  0  0  0  0  0  0  0  0  0
    4.3563   -3.6118   -2.3711 H   0  0  0  0  0  0  0  0  0  0  0  0
    2.3322   -2.7544   -0.2632 H   0  0  0  0  0  0  0  0  0  0  0  0
    2.3190   -4.2317   -1.1819 H   0  0  0  0  0  0  0  0  0  0  0  0
    4.3566   -4.9974   -0.1543 H   0  0  0  0  0  0  0  0  0  0  0  0
    3.5352   -4.8955    3.1581 H   0  0  0  0  0  0  0  0  0  0  0  0
    4.4614   -6.8478    1.0934 H   0  0  0  0  0  0  0  0  0  0  0  0
    3.6203   -8.6308    2.0802 H   0  0  0  0  0  0  0  0  0  0  0  0
    4.4951   -8.3625    3.5555 H   0  0  0  0  0  0  0  0  0  0  0  0
    1.8327   -8.3717    3.5580 H   0  0  0  0  0  0  0  0  0  0  0  0
    3.0965   -7.9739    5.3516 H   0  0  0  0  0  0  0  0  0  0  0  0
    0.1711   -6.0354    3.9475 H   0  0  0  0  0  0  0  0  0  0  0  0
    0.6224   -4.6387    2.9643 H   0  0  0  0  0  0  0  0  0  0  0  0
    1.5020   -4.9972    4.4363 H   0  0  0  0  0  0  0  0  0  0  0  0
    0.4170   -7.5713    1.8539 H   0  0  0  0  0  0  0  0  0  0  0  0
    1.8816   -7.4807    0.8897 H   0  0  0  0  0  0  0  0  0  0  0  0
    0.7782   -6.1167    0.9304 H   0  0  0  0  0  0  0  0  0  0  0  0
    6.0258   -4.9109    4.5252 H   0  0  0  0  0  0  0  0  0  0  0  0
    5.1287   -6.4363    4.8185 H   0  0  0  0  0  0  0  0  0  0  0  0
    6.4675   -8.2889    3.0907 H   0  0  0  0  0  0  0  0  0  0  0  0
    7.7422   -7.2555    2.3623 H   0  0  0  0  0  0  0  0  0  0  0  0
    7.2903   -4.7007    2.4489 H   0  0  0  0  0  0  0  0  0  0  0  0
    7.8243   -6.0139    0.6392 H   0  0  0  0  0  0  0  0  0  0  0  0
    6.3043   -5.8217   -0.1443 H   0  0  0  0  0  0  0  0  0  0  0  0
    7.3600   -2.8489   -1.5526 H   0  0  0  0  0  0  0  0  0  0  0  0
    6.2126   -4.1420   -1.5295 H   0  0  0  0  0  0  0  0  0  0  0  0
    5.9855   -0.9083    0.9166 H   0  0  0  0  0  0  0  0  0  0  0  0
    5.4580   -1.3899   -1.9793 H   0  0  0  0  0  0  0  0  0  0  0  0
    4.2964   -1.0142   -0.7425 H   0  0  0  0  0  0  0  0  0  0  0  0
    3.4265   -1.5074    1.2538 H   0  0  0  0  0  0  0  0  0  0  0  0
    4.8054   -1.4577    2.3397 H   0  0  0  0  0  0  0  0  0  0  0  0
    3.5220   -2.6011    2.6131 H   0  0  0  0  0  0  0  0  0  0  0  0
  1  2  1  0
  1 28  1  0
  1 29  1  0
  1 30  1  0
  2 24  1  0
  2  3  1  0
  2 31  1  6
  3  4  1  0
  3 32  1  0
  3 33  1  0
  4 25  1  0
  4  5  1  0
  4 34  1  6
  5  6  1  0
  6 11  1  0
  6  7  1  0
  6 35  1  1
  7  8  1  0
  7 14  1  0
  7 36  1  6
  8  9  1  0
  8 37  1  0
  8 38  1  0
  9 10  1  0
  9 11  1  0
  9 39  1  1
 10 40  1  0
 11 12  1  0
 11 13  1  0
 12 41  1  0
 12 42  1  0
 12 43  1  0
 13 44  1  0
 13 45  1  0
 13 46  1  0
 14 17  1  0
 14 15  1  0
 14 18  1  0
 15 16  1  0
 15 47  1  0
 15 48  1  0
 16 17  1  0
 17 49  1  0
 17 50  1  0
 18 27  1  0
 18 19  1  0
 18 51  1  1
 19 20  1  0
 19 52  1  0
 19 53  1  0
 20 21  1  0
 21 22  1  0
 21 54  1  0
 21 55  1  0
 22 23  1  1
 22 24  1  0
 22 25  1  0
 23 56  1  0
 24 57  1  0
 24 58  1  0
 25 26  1  1
 25 27  1  0
 26 59  1  0
 26 60  1  0
 26 61  1  0
M  END
>  <i_m_ct_stereo_status>  (316) 
1

>  <s_m_source_file>  (316) 
/var/tmp/pbs.5076255.sched01/tmp7yh4k8o6/114t33l0ocj.sdf

>  <i_m_source_file_index>  (316) 
36

>  <i_lp_mmshare_version>  (316) 
48012

>  <i_f3d_flags>  (316) 
0

>  <s_epik_input>  (316) 
TzFbQ0BASF0yW0NIMl1PW0NIMl1bQ0BAXShbT0hdKShbQ0gyXVtDQEhdKFtDSDNdKVtDSDJdMylbQ0BAXTEoW0NIM10pW0NASF0zT1tDQEBIXShDKFtDSDNdKShbQ0gzXSlbQ0BASF0oW0NIMl00KVtPSF0pW0NASF00QzI1W0NIMl1PW0NIMl01

>  <s_epik_cmdline>  (316) 
J2VwaWtfcHl0aG9uJywgJy1waHQnLCAnMi4wJywgJy1waCcsICc3LjAnLCAnLXRuJywgJzgnLCAnLW1hJywgJzIwMCcsICctaW1hZScsICc8aW5maWxlLm1hZT4nLCAnLW9tYWUnLCAnPG91dGZpbGUubWFlPic=

>  <r_lp_tautomer_probability>  (316) 
1

>  <r_epik_Ionization_Penalty>  (316) 
3.00993e-07

>  <r_epik_Ionization_Penalty_Charging>  (316) 
0

>  <r_epik_Ionization_Penalty_Neutral>  (316) 
3.00993e-07

>  <r_epik_State_Penalty>  (316) 
-0

>  <r_epik_Charging_Adjusted_Penalty>  (316) 
0

>  <i_epik_Tot_Q>  (316) 
0

>  <i_epik_Tot_abs_Q>  (316) 
0

>  <s_lp_Force_Field>  (316) 
OPLS3e

>  <r_lp_Energy>  (316) 
46.886

>  <b_lp_Chiralities_Consistent>  (316) 
1

>  <s_lp_Variant>  (316) 
112:0-1

>  <s_i_glide_gridfile>  (316) 
pfpi4k_grid

>  <i_i_glide_lignum>  (316) 
36

>  <i_i_glide_rotatable_bonds>  (316) 
2

>  <r_i_docking_score>  (316) 
-2.80407

>  <r_i_glide_ligand_efficiency>  (316) 
-0.103854

>  <r_i_glide_ligand_efficiency_sa>  (316) 
-0.311563

>  <r_i_glide_ligand_efficiency_ln>  (316) 
-0.65274

>  <r_i_glide_gscore>  (316) 
-2.80407

>  <r_i_glide_lipo>  (316) 
-0.385304

>  <r_i_glide_hbond>  (316) 
0

>  <r_i_glide_metal>  (316) 
-0

>  <r_i_glide_rewards>  (316) 
-0.801197

>  <r_i_glide_evdw>  (316) 
-26.4822

>  <r_i_glide_ecoul>  (316) 
-1.95636

>  <r_i_glide_erotb>  (316) 
0

>  <r_i_glide_esite>  (316) 
0

>  <r_i_glide_emodel>  (316) 
-33.139

>  <r_i_glide_energy>  (316) 
-28.4386

>  <r_i_glide_einternal>  (316) 
0.344744

>  <r_i_glide_intrahb_reward>  (316) 
-0

>  <i_i_glide_confnum>  (316) 
3

>  <i_i_glide_posenum>  (316) 
19

>  <r_i_glide_eff_state_penalty>  (316) 
0

>  <ligand_id>  (316) 
112

>  <original_smiles>  (316) 
CC1CC2OC3C(CC(O)C3(C)C)C3(COC3)C3COCC(O)(C1)C2(C)O3

>  <smiles>  (316) 
[H]OC1([H])C([H])([H])C2([H])C([H])(OC3([H])C([H])([H])C([H])(C([H])([H])[H])C([H])([H])C4(O[H])C([H])([H])OC([H])([H])C([H])(OC34C([H])([H])[H])C23C([H])([H])OC3([H])[H])C1(C([H])([H])[H])C([H])([H])[H]

$$$$
112:0:2
     RDKit          3D

 61 65  0  0  1  0  0  0  0  0999 V2000
    2.8630   -2.1666   -2.8692 C   0  0  0  0  0  0  0  0  0  0  0  0
    3.7579   -2.8531   -1.8307 C   0  0  2  0  0  0  0  0  0  0  0  0
    2.9296   -3.5334   -0.7262 C   0  0  0  0  0  0  0  0  0  0  0  0
    3.8093   -4.2190    0.3344 C   0  0  2  0  0  0  0  0  0  0  0  0
    2.8598   -4.7824    1.2311 O   0  0  0  0  0  0  0  0  0  0  0  0
    3.2604   -5.6096    2.3233 C   0  0  2  0  0  0  0  0  0  0  0  0
    4.4184   -6.6341    2.1277 C   0  0  2  0  0  0  0  0  0  0  0  0
    3.8815   -7.9349    2.7970 C   0  0  0  0  0  0  0  0  0  0  0  0
    2.5860   -7.5932    3.5447 C   0  0  1  0  0  0  0  0  0  0  0  0
    2.8540   -7.2777    4.9005 O   0  0  0  0  0  0  0  0  0  0  0  0
    2.0000   -6.4084    2.7574 C   0  0  0  0  0  0  0  0  0  0  0  0
    1.0236   -5.5472    3.5906 C   0  0  0  0  0  0  0  0  0  0  0  0
    1.2351   -6.9874    1.5423 C   0  0  0  0  0  0  0  0  0  0  0  0
    5.8149   -6.1645    2.6781 C   0  0  0  0  0  0  0  0  0  0  0  0
    5.9359   -5.9729    4.2130 C   0  0  0  0  0  0  0  0  0  0  0  0
    6.5066   -7.2892    4.3682 O   0  0  0  0  0  0  0  0  0  0  0  0
    6.8469   -7.2823    2.9631 C   0  0  0  0  0  0  0  0  0  0  0  0
    6.3964   -4.9798    1.8681 C   0  0  1  0  0  0  0  0  0  0  0  0
    6.9736   -5.3276    0.4982 C   0  0  0  0  0  0  0  0  0  0  0  0
    7.5714   -4.1685   -0.0619 O   0  0  0  0  0  0  0  0  0  0  0  0
    6.6895   -3.4403   -0.8969 C   0  0  0  0  0  0  0  0  0  0  0  0
    5.6881   -2.5227   -0.1512 C   0  0  1  0  0  0  0  0  0  0  0  0
    6.4572   -1.4441    0.3390 O   0  0  0  0  0  0  0  0  0  0  0  0
    4.7656   -1.8632   -1.2014 C   0  0  0  0  0  0  0  0  0  0  0  0
    4.8216   -3.2128    0.9736 C   0  0  1  0  0  0  0  0  0  0  0  0
    4.0640   -2.1671    1.8302 C   0  0  0  0  0  0  0  0  0  0  0  0
    5.6220   -3.7955    2.0047 O   0  0  0  0  0  0  0  0  0  0  0  0
    2.2626   -1.3791   -2.4123 H   0  0  0  0  0  0  0  0  0  0  0  0
    2.1801   -2.8852   -3.3261 H   0  0  0  0  0  0  0  0  0  0  0  0
    3.4590   -1.7177   -3.6643 H   0  0  0  0  0  0  0  0  0  0  0  0
    4.2903   -3.6348   -2.3777 H   0  0  0  0  0  0  0  0  0  0  0  0
    2.2745   -2.8064   -0.2423 H   0  0  0  0  0  0  0  0  0  0  0  0
    2.2664   -4.2722   -1.1728 H   0  0  0  0  0  0  0  0  0  0  0  0
    4.3261   -5.0236   -0.1680 H   0  0  0  0  0  0  0  0  0  0  0  0
    3.5258   -4.9352    3.1401 H   0  0  0  0  0  0  0  0  0  0  0  0
    4.4850   -6.8638    1.0726 H   0  0  0  0  0  0  0  0  0  0  0  0
    3.6466   -8.6583    2.0155 H   0  0  0  0  0  0  0  0  0  0  0  0
    4.5767   -8.4320    3.4657 H   0  0  0  0  0  0  0  0  0  0  0  0
    1.9032   -8.4472    3.5580 H   0  0  0  0  0  0  0  0  0  0  0  0
    3.5294   -6.6201    4.9377 H   0  0  0  0  0  0  0  0  0  0  0  0
    0.1976   -6.1486    3.9662 H   0  0  0  0  0  0  0  0  0  0  0  0
    0.6137   -4.7388    2.9875 H   0  0  0  0  0  0  0  0  0  0  0  0
    1.5142   -5.0896    4.4499 H   0  0  0  0  0  0  0  0  0  0  0  0
    0.4471   -7.6640    1.8708 H   0  0  0  0  0  0  0  0  0  0  0  0
    1.8957   -7.5525    0.8895 H   0  0  0  0  0  0  0  0  0  0  0  0
    0.7742   -6.2065    0.9433 H   0  0  0  0  0  0  0  0  0  0  0  0
    6.6380   -5.1901    4.5306 H   0  0  0  0  0  0  0  0  0  0  0  0
    4.9800   -5.8695    4.7364 H   0  0  0  0  0  0  0  0  0  0  0  0
    6.6074   -8.2312    2.4661 H   0  0  0  0  0  0  0  0  0  0  0  0
    7.8935   -6.9992    2.8083 H   0  0  0  0  0  0  0  0  0  0  0  0
    7.2939   -4.6865    2.4058 H   0  0  0  0  0  0  0  0  0  0  0  0
    7.7902   -6.0366    0.6337 H   0  0  0  0  0  0  0  0  0  0  0  0
    6.2797   -5.8347   -0.1688 H   0  0  0  0  0  0  0  0  0  0  0  0
    7.3000   -2.8363   -1.5775 H   0  0  0  0  0  0  0  0  0  0  0  0
    6.1788   -4.1459   -1.5470 H   0  0  0  0  0  0  0  0  0  0  0  0
    5.9047   -0.9298    0.8990 H   0  0  0  0  0  0  0  0  0  0  0  0
    5.3728   -1.3993   -1.9821 H   0  0  0  0  0  0  0  0  0  0  0  0
    4.2139   -1.0471   -0.7354 H   0  0  0  0  0  0  0  0  0  0  0  0
    3.3638   -1.5521    1.2647 H   0  0  0  0  0  0  0  0  0  0  0  0
    4.7559   -1.4914    2.3406 H   0  0  0  0  0  0  0  0  0  0  0  0
    3.4846   -2.6530    2.6206 H   0  0  0  0  0  0  0  0  0  0  0  0
  1  2  1  0
  1 28  1  0
  1 29  1  0
  1 30  1  0
  2 24  1  0
  2  3  1  0
  2 31  1  6
  3  4  1  0
  3 32  1  0
  3 33  1  0
  4 25  1  0
  4  5  1  0
  4 34  1  6
  5  6  1  0
  6 11  1  0
  6  7  1  0
  6 35  1  1
  7  8  1  0
  7 14  1  0
  7 36  1  6
  8  9  1  0
  8 37  1  0
  8 38  1  0
  9 10  1  0
  9 11  1  0
  9 39  1  1
 10 40  1  0
 11 12  1  0
 11 13  1  0
 12 41  1  0
 12 42  1  0
 12 43  1  0
 13 44  1  0
 13 45  1  0
 13 46  1  0
 14 17  1  0
 14 15  1  0
 14 18  1  0
 15 16  1  0
 15 47  1  0
 15 48  1  0
 16 17  1  0
 17 49  1  0
 17 50  1  0
 18 27  1  0
 18 19  1  0
 18 51  1  1
 19 20  1  0
 19 52  1  0
 19 53  1  0
 20 21  1  0
 21 22  1  0
 21 54  1  0
 21 55  1  0
 22 23  1  1
 22 24  1  0
 22 25  1  0
 23 56  1  0
 24 57  1  0
 24 58  1  0
 25 26  1  1
 25 27  1  0
 26 59  1  0
 26 60  1  0
 26 61  1  0
M  END
>  <i_m_ct_stereo_status>  (317) 
1

>  <s_m_source_file>  (317) 
/var/tmp/pbs.5076255.sched01/tmp7yh4k8o6/114t33l0ocj.sdf

>  <i_m_source_file_index>  (317) 
36

>  <i_lp_mmshare_version>  (317) 
48012

>  <i_f3d_flags>  (317) 
0

>  <s_epik_input>  (317) 
TzFbQ0BASF0yW0NIMl1PW0NIMl1bQ0BAXShbT0hdKShbQ0gyXVtDQEhdKFtDSDNdKVtDSDJdMylbQ0BAXTEoW0NIM10pW0NASF0zT1tDQEBIXShDKFtDSDNdKShbQ0gzXSlbQ0BASF0oW0NIMl00KVtPSF0pW0NASF00QzI1W0NIMl1PW0NIMl01

>  <s_epik_cmdline>  (317) 
J2VwaWtfcHl0aG9uJywgJy1waHQnLCAnMi4wJywgJy1waCcsICc3LjAnLCAnLXRuJywgJzgnLCAnLW1hJywgJzIwMCcsICctaW1hZScsICc8aW5maWxlLm1hZT4nLCAnLW9tYWUnLCAnPG91dGZpbGUubWFlPic=

>  <r_lp_tautomer_probability>  (317) 
1

>  <r_epik_Ionization_Penalty>  (317) 
3.00993e-07

>  <r_epik_Ionization_Penalty_Charging>  (317) 
0

>  <r_epik_Ionization_Penalty_Neutral>  (317) 
3.00993e-07

>  <r_epik_State_Penalty>  (317) 
-0

>  <r_epik_Charging_Adjusted_Penalty>  (317) 
0

>  <i_epik_Tot_Q>  (317) 
0

>  <i_epik_Tot_abs_Q>  (317) 
0

>  <s_lp_Force_Field>  (317) 
OPLS3e

>  <r_lp_Energy>  (317) 
46.886

>  <b_lp_Chiralities_Consistent>  (317) 
1

>  <s_lp_Variant>  (317) 
112:0-1

>  <s_i_glide_gridfile>  (317) 
pfpi4k_grid

>  <i_i_glide_lignum>  (317) 
36

>  <i_i_glide_rotatable_bonds>  (317) 
2

>  <r_i_docking_score>  (317) 
-2.73526

>  <r_i_glide_ligand_efficiency>  (317) 
-0.101306

>  <r_i_glide_ligand_efficiency_sa>  (317) 
-0.303918

>  <r_i_glide_ligand_efficiency_ln>  (317) 
-0.636723

>  <r_i_glide_gscore>  (317) 
-2.73526

>  <r_i_glide_lipo>  (317) 
-0.361408

>  <r_i_glide_hbond>  (317) 
0

>  <r_i_glide_metal>  (317) 
-0

>  <r_i_glide_rewards>  (317) 
-0.801197

>  <r_i_glide_evdw>  (317) 
-26.0496

>  <r_i_glide_ecoul>  (317) 
-1.80116

>  <r_i_glide_erotb>  (317) 
0

>  <r_i_glide_esite>  (317) 
0

>  <r_i_glide_emodel>  (317) 
-32.6986

>  <r_i_glide_energy>  (317) 
-27.8508

>  <r_i_glide_einternal>  (317) 
0.045699

>  <r_i_glide_intrahb_reward>  (317) 
-0

>  <i_i_glide_confnum>  (317) 
2

>  <i_i_glide_posenum>  (317) 
21

>  <r_i_glide_eff_state_penalty>  (317) 
0

>  <ligand_id>  (317) 
112

>  <original_smiles>  (317) 
CC1CC2OC3C(CC(O)C3(C)C)C3(COC3)C3COCC(O)(C1)C2(C)O3

>  <smiles>  (317) 
[H]OC1([H])C([H])([H])C2([H])C([H])(OC3([H])C([H])([H])C([H])(C([H])([H])[H])C([H])([H])C4(O[H])C([H])([H])OC([H])([H])C([H])(OC34C([H])([H])[H])C23C([H])([H])OC3([H])[H])C1(C([H])([H])[H])C([H])([H])[H]

$$$$
113:0:0
     RDKit          3D

 29 32  0  0  1  0  0  0  0  0999 V2000
    2.7611   -1.9639   -3.6075 C   0  0  0  0  0  0  0  0  0  0  0  0
    3.5736   -0.7920   -3.5169 C   0  0  0  0  0  0  0  0  0  0  0  0
    4.6151   -0.6227   -2.6521 N   0  0  0  0  0  0  0  0  0  0  0  0
    4.8238   -1.7058   -1.9099 C   0  0  0  0  0  0  0  0  0  0  0  0
    4.0553   -2.8991   -1.8984 C   0  0  0  0  0  0  0  0  0  0  0  0
    2.9682   -3.0766   -2.7529 C   0  0  0  0  0  0  0  0  0  0  0  0
    4.8650   -3.5090   -0.7761 C   0  0  2  0  0  0  0  0  0  0  0  0
    4.2801   -3.5816    0.6469 C   0  0  2  0  0  0  0  0  0  0  0  0
    2.9475   -2.8174    0.8607 C   0  0  0  0  0  0  0  0  0  0  0  0
    3.0326   -1.3809    0.4800 N   0  0  0  0  0  0  0  0  0  0  0  0
    4.3029   -0.6844    0.8347 C   0  0  0  0  0  0  0  0  0  0  0  0
    5.5564   -1.5805    0.6308 C   0  0  1  0  0  0  0  0  0  0  0  0
    5.3407   -2.8445    1.4828 C   0  0  0  0  0  0  0  0  0  0  0  0
    5.7278   -2.1647   -0.7868 C   0  0  2  0  0  0  0  0  0  0  0  0
    1.9488   -1.9950   -4.3200 H   0  0  0  0  0  0  0  0  0  0  0  0
    3.3700    0.0390   -4.1719 H   0  0  0  0  0  0  0  0  0  0  0  0
    2.3361   -3.9490   -2.7694 H   0  0  0  0  0  0  0  0  0  0  0  0
    5.4529   -4.3706   -1.0932 H   0  0  0  0  0  0  0  0  0  0  0  0
    4.1691   -4.6134    0.9815 H   0  0  0  0  0  0  0  0  0  0  0  0
    2.1491   -3.2810    0.2812 H   0  0  0  0  0  0  0  0  0  0  0  0
    2.6556   -2.8786    1.9106 H   0  0  0  0  0  0  0  0  0  0  0  0
    2.9303   -1.3540   -0.5309 H   0  0  0  0  0  0  0  0  0  0  0  0
    4.3841    0.2336    0.2505 H   0  0  0  0  0  0  0  0  0  0  0  0
    4.2476   -0.3834    1.8823 H   0  0  0  0  0  0  0  0  0  0  0  0
    6.4505   -1.0453    0.9571 H   0  0  0  0  0  0  0  0  0  0  0  0
    5.0370   -2.6446    2.5113 H   0  0  0  0  0  0  0  0  0  0  0  0
    6.2594   -3.4348    1.5195 H   0  0  0  0  0  0  0  0  0  0  0  0
    6.7551   -2.3547   -1.1025 H   0  0  0  0  0  0  0  0  0  0  0  0
    2.2312   -0.8766    0.8352 H   0  0  0  0  0  0  0  0  0  0  0  0
  1  6  2  0
  1  2  1  0
  1 15  1  0
  2  3  2  0
  2 16  1  0
  3  4  1  0
  4 14  1  0
  4  5  2  0
  5  6  1  0
  5  7  1  0
  6 17  1  0
  7 14  1  0
  7  8  1  0
  7 18  1  6
  8 13  1  0
  8  9  1  0
  8 19  1  1
  9 10  1  0
  9 20  1  0
  9 21  1  0
 10 11  1  0
 10 22  1  0
 10 29  1  0
 11 12  1  0
 11 23  1  0
 11 24  1  0
 12 13  1  0
 12 14  1  0
 12 25  1  1
 13 26  1  0
 13 27  1  0
 14 28  1  6
M  CHG  1  10   1
M  END
>  <i_m_ct_stereo_status>  (318) 
1

>  <s_m_source_file>  (318) 
/var/tmp/pbs.5076255.sched01/tmp7yh4k8o6/114t33l0ocj.sdf

>  <i_m_source_file_index>  (318) 
37

>  <i_lp_mmshare_version>  (318) 
48012

>  <i_f3d_flags>  (318) 
0

>  <s_epik_input>  (318) 
bjFbY0hdW2NIXVtjSF1jKGMxMilbQ0BASF0zW0NAQEhdNFtDSDJdW05IXVtDSDJdW0NAQEhdKFtDSDJdNClbQ0BIXTIz

>  <s_epik_cmdline>  (318) 
J2VwaWtfcHl0aG9uJywgJy1waHQnLCAnMi4wJywgJy1waCcsICc3LjAnLCAnLXRuJywgJzgnLCAnLW1hJywgJzIwMCcsICctaW1hZScsICc8aW5maWxlLm1hZT4nLCAnLW9tYWUnLCAnPG91dGZpbGUubWFlPic=

>  <r_lp_tautomer_probability>  (318) 
1

>  <r_epik_Ionization_Penalty>  (318) 
0.00516566

>  <r_epik_Ionization_Penalty_Charging>  (318) 
0.000126484

>  <r_epik_Ionization_Penalty_Neutral>  (318) 
0.00503918

>  <r_epik_State_Penalty>  (318) 
-0

>  <r_epik_Charging_Adjusted_Penalty>  (318) 
0.000126484

>  <i_epik_Tot_Q>  (318) 
1

>  <i_epik_Tot_abs_Q>  (318) 
1

>  <s_lp_Force_Field>  (318) 
OPLS3e

>  <r_lp_Energy>  (318) 
61.6013

>  <b_lp_Chiralities_Consistent>  (318) 
1

>  <s_lp_Variant>  (318) 
113:0-1

>  <s_i_glide_gridfile>  (318) 
pfpi4k_grid

>  <i_i_glide_lignum>  (318) 
37

>  <i_i_glide_rotatable_bonds>  (318) 
0

>  <r_i_docking_score>  (318) 
-4.74592

>  <r_i_glide_ligand_efficiency>  (318) 
-0.338995

>  <r_i_glide_ligand_efficiency_sa>  (318) 
-0.817025

>  <r_i_glide_ligand_efficiency_ln>  (318) 
-1.30416

>  <r_i_glide_gscore>  (318) 
-4.74592

>  <r_i_glide_lipo>  (318) 
-0.730002

>  <r_i_glide_hbond>  (318) 
-0.0175638

>  <r_i_glide_metal>  (318) 
-0

>  <r_i_glide_rewards>  (318) 
-2.13231

>  <r_i_glide_evdw>  (318) 
-19.7876

>  <r_i_glide_ecoul>  (318) 
-5.2849

>  <r_i_glide_erotb>  (318) 
0

>  <r_i_glide_esite>  (318) 
-0.083928

>  <r_i_glide_emodel>  (318) 
-33.6309

>  <r_i_glide_energy>  (318) 
-25.0725

>  <r_i_glide_einternal>  (318) 
0

>  <r_i_glide_intrahb_reward>  (318) 
-0

>  <i_i_glide_confnum>  (318) 
1

>  <i_i_glide_posenum>  (318) 
1

>  <r_i_glide_eff_state_penalty>  (318) 
0

>  <ligand_id>  (318) 
113

>  <original_smiles>  (318) 
c1cnc2c(c1)C1C3CNCC(C3)C21

>  <smiles>  (318) 
[H]c1nc2c(c([H])c1[H])C1([H])C2([H])C2([H])C([H])([H])C1([H])C([H])([H])[N+]([H])([H])C2([H])[H]

$$$$
113:0:1
     RDKit          3D

 29 32  0  0  1  0  0  0  0  0999 V2000
    3.1691   -1.4604   -3.7527 C   0  0  0  0  0  0  0  0  0  0  0  0
    4.0401   -0.4567   -3.2160 C   0  0  0  0  0  0  0  0  0  0  0  0
    5.0047   -0.6619   -2.2684 N   0  0  0  0  0  0  0  0  0  0  0  0
    5.0557   -1.9382   -1.9045 C   0  0  0  0  0  0  0  0  0  0  0  0
    4.2149   -2.9973   -2.3455 C   0  0  0  0  0  0  0  0  0  0  0  0
    3.2224   -2.8099   -3.3075 C   0  0  0  0  0  0  0  0  0  0  0  0
    4.8609   -3.9914   -1.4140 C   0  0  2  0  0  0  0  0  0  0  0  0
    4.1220   -4.4634   -0.1506 C   0  0  2  0  0  0  0  0  0  0  0  0
    2.8193   -3.6907    0.1825 C   0  0  0  0  0  0  0  0  0  0  0  0
    3.0332   -2.2218    0.3021 N   0  0  0  0  0  0  0  0  0  0  0  0
    4.2961   -1.7966    0.9719 C   0  0  0  0  0  0  0  0  0  0  0  0
    5.5105   -2.6906    0.5928 C   0  0  1  0  0  0  0  0  0  0  0  0
    5.1274   -4.1341    0.9632 C   0  0  0  0  0  0  0  0  0  0  0  0
    5.8027   -2.8041   -0.9160 C   0  0  2  0  0  0  0  0  0  0  0  0
    2.4371   -1.1674   -4.4894 H   0  0  0  0  0  0  0  0  0  0  0  0
    3.9597    0.5581   -3.5703 H   0  0  0  0  0  0  0  0  0  0  0  0
    2.5603   -3.5869   -3.6608 H   0  0  0  0  0  0  0  0  0  0  0  0
    5.4161   -4.7559   -1.9504 H   0  0  0  0  0  0  0  0  0  0  0  0
    3.9160   -5.5332   -0.1894 H   0  0  0  0  0  0  0  0  0  0  0  0
    2.0598   -3.8769   -0.5769 H   0  0  0  0  0  0  0  0  0  0  0  0
    2.4181   -4.0582    1.1273 H   0  0  0  0  0  0  0  0  0  0  0  0
    3.0677   -1.8638   -0.6453 H   0  0  0  0  0  0  0  0  0  0  0  0
    4.4938   -0.7517    0.7310 H   0  0  0  0  0  0  0  0  0  0  0  0
    4.1448   -1.8429    2.0512 H   0  0  0  0  0  0  0  0  0  0  0  0
    6.3928   -2.3717    1.1503 H   0  0  0  0  0  0  0  0  0  0  0  0
    4.7278   -4.2488    1.9730 H   0  0  0  0  0  0  0  0  0  0  0  0
    5.9992   -4.7867    0.8792 H   0  0  0  0  0  0  0  0  0  0  0  0
    6.8440   -2.9761   -1.1904 H   0  0  0  0  0  0  0  0  0  0  0  0
    2.2327   -1.7825    0.7388 H   0  0  0  0  0  0  0  0  0  0  0  0
  1  6  2  0
  1  2  1  0
  1 15  1  0
  2  3  2  0
  2 16  1  0
  3  4  1  0
  4 14  1  0
  4  5  2  0
  5  6  1  0
  5  7  1  0
  6 17  1  0
  7 14  1  0
  7  8  1  0
  7 18  1  6
  8 13  1  0
  8  9  1  0
  8 19  1  6
  9 10  1  0
  9 20  1  0
  9 21  1  0
 10 11  1  0
 10 22  1  0
 10 29  1  0
 11 12  1  0
 11 23  1  0
 11 24  1  0
 12 13  1  0
 12 14  1  0
 12 25  1  1
 13 26  1  0
 13 27  1  0
 14 28  1  1
M  CHG  1  10   1
M  END
>  <i_m_ct_stereo_status>  (319) 
1

>  <s_m_source_file>  (319) 
/var/tmp/pbs.5076255.sched01/tmp7yh4k8o6/114t33l0ocj.sdf

>  <i_m_source_file_index>  (319) 
37

>  <i_lp_mmshare_version>  (319) 
48012

>  <i_f3d_flags>  (319) 
0

>  <s_epik_input>  (319) 
bjFbY0hdW2NIXVtjSF1jKGMxMilbQ0BASF0zW0NAQEhdNFtDSDJdW05IXVtDSDJdW0NAQEhdKFtDSDJdNClbQ0BIXTIz

>  <s_epik_cmdline>  (319) 
J2VwaWtfcHl0aG9uJywgJy1waHQnLCAnMi4wJywgJy1waCcsICc3LjAnLCAnLXRuJywgJzgnLCAnLW1hJywgJzIwMCcsICctaW1hZScsICc8aW5maWxlLm1hZT4nLCAnLW9tYWUnLCAnPG91dGZpbGUubWFlPic=

>  <r_lp_tautomer_probability>  (319) 
1

>  <r_epik_Ionization_Penalty>  (319) 
0.00516566

>  <r_epik_Ionization_Penalty_Charging>  (319) 
0.000126484

>  <r_epik_Ionization_Penalty_Neutral>  (319) 
0.00503918

>  <r_epik_State_Penalty>  (319) 
-0

>  <r_epik_Charging_Adjusted_Penalty>  (319) 
0.000126484

>  <i_epik_Tot_Q>  (319) 
1

>  <i_epik_Tot_abs_Q>  (319) 
1

>  <s_lp_Force_Field>  (319) 
OPLS3e

>  <r_lp_Energy>  (319) 
61.6013

>  <b_lp_Chiralities_Consistent>  (319) 
1

>  <s_lp_Variant>  (319) 
113:0-1

>  <s_i_glide_gridfile>  (319) 
pfpi4k_grid

>  <i_i_glide_lignum>  (319) 
37

>  <i_i_glide_rotatable_bonds>  (319) 
0

>  <r_i_docking_score>  (319) 
-4.51457

>  <r_i_glide_ligand_efficiency>  (319) 
-0.322469

>  <r_i_glide_ligand_efficiency_sa>  (319) 
-0.777197

>  <r_i_glide_ligand_efficiency_ln>  (319) 
-1.24059

>  <r_i_glide_gscore>  (319) 
-4.51457

>  <r_i_glide_lipo>  (319) 
-0.619565

>  <r_i_glide_hbond>  (319) 
-0.0183664

>  <r_i_glide_metal>  (319) 
-0

>  <r_i_glide_rewards>  (319) 
-2.13231

>  <r_i_glide_evdw>  (319) 
-19.082

>  <r_i_glide_ecoul>  (319) 
-4.85152

>  <r_i_glide_erotb>  (319) 
0

>  <r_i_glide_esite>  (319) 
-0.0625019

>  <r_i_glide_emodel>  (319) 
-32.0732

>  <r_i_glide_energy>  (319) 
-23.9335

>  <r_i_glide_einternal>  (319) 
0

>  <r_i_glide_intrahb_reward>  (319) 
-0

>  <i_i_glide_confnum>  (319) 
1

>  <i_i_glide_posenum>  (319) 
32

>  <r_i_glide_eff_state_penalty>  (319) 
0

>  <ligand_id>  (319) 
113

>  <original_smiles>  (319) 
c1cnc2c(c1)C1C3CNCC(C3)C21

>  <smiles>  (319) 
[H]c1nc2c(c([H])c1[H])C1([H])C2([H])C2([H])C([H])([H])C1([H])C([H])([H])[N+]([H])([H])C2([H])[H]

$$$$
113:0:2
     RDKit          3D

 29 32  0  0  1  0  0  0  0  0999 V2000
    4.9967   -3.9168    1.1432 C   0  0  0  0  0  0  0  0  0  0  0  0
    4.8764   -5.0576    0.2787 C   0  0  0  0  0  0  0  0  0  0  0  0
    5.0187   -5.0537   -1.0690 N   0  0  0  0  0  0  0  0  0  0  0  0
    5.2493   -3.8320   -1.5187 C   0  0  0  0  0  0  0  0  0  0  0  0
    5.3647   -2.6379   -0.7530 C   0  0  0  0  0  0  0  0  0  0  0  0
    5.2572   -2.6155    0.6342 C   0  0  0  0  0  0  0  0  0  0  0  0
    5.6007   -1.8206   -1.9858 C   0  0  2  0  0  0  0  0  0  0  0  0
    4.5028   -0.8930   -2.5379 C   0  0  2  0  0  0  0  0  0  0  0  0
    3.1445   -1.0901   -1.8715 C   0  0  0  0  0  0  0  0  0  0  0  0
    2.6373   -2.4722   -1.9333 N   0  0  0  0  0  0  0  0  0  0  0  0
    2.8558   -3.1813   -3.2229 C   0  0  0  0  0  0  0  0  0  0  0  0
    4.2511   -2.8769   -3.7971 C   0  0  1  0  0  0  0  0  0  0  0  0
    4.2424   -1.3586   -3.9858 C   0  0  0  0  0  0  0  0  0  0  0  0
    5.4403   -3.1483   -2.8424 C   0  0  2  0  0  0  0  0  0  0  0  0
    4.8535   -4.0718    2.1947 H   0  0  0  0  0  0  0  0  0  0  0  0
    4.6584   -6.0300    0.6859 H   0  0  0  0  0  0  0  0  0  0  0  0
    5.3485   -1.7237    1.2406 H   0  0  0  0  0  0  0  0  0  0  0  0
    6.6363   -1.5010   -2.0073 H   0  0  0  0  0  0  0  0  0  0  0  0
    4.7870    0.1586   -2.4776 H   0  0  0  0  0  0  0  0  0  0  0  0
    3.1868   -0.7822   -0.8278 H   0  0  0  0  0  0  0  0  0  0  0  0
    2.4250   -0.4364   -2.3698 H   0  0  0  0  0  0  0  0  0  0  0  0
    3.1335   -2.9970   -1.2198 H   0  0  0  0  0  0  0  0  0  0  0  0
    2.7188   -4.2491   -3.0926 H   0  0  0  0  0  0  0  0  0  0  0  0
    2.0956   -2.8542   -3.9370 H   0  0  0  0  0  0  0  0  0  0  0  0
    4.3697   -3.4163   -4.7257 H   0  0  0  0  0  0  0  0  0  0  0  0
    3.3535   -0.9159   -4.4614 H   0  0  0  0  0  0  0  0  0  0  0  0
    5.0336   -1.0496   -4.6397 H   0  0  0  0  0  0  0  0  0  0  0  0
    6.3901   -3.3999   -3.3128 H   0  0  0  0  0  0  0  0  0  0  0  0
    1.6524   -2.3945   -1.7061 H   0  0  0  0  0  0  0  0  0  0  0  0
  1  6  2  0
  1  2  1  0
  1 15  1  0
  2  3  2  0
  2 16  1  0
  3  4  1  0
  4 14  1  0
  4  5  2  0
  5  6  1  0
  5  7  1  0
  6 17  1  0
  7 14  1  0
  7  8  1  0
  7 18  1  1
  8 13  1  0
  8  9  1  0
  8 19  1  6
  9 10  1  0
  9 20  1  0
  9 21  1  0
 10 11  1  0
 10 22  1  0
 10 29  1  0
 11 12  1  0
 11 23  1  0
 11 24  1  0
 12 13  1  0
 12 14  1  0
 12 25  1  6
 13 26  1  0
 13 27  1  0
 14 28  1  6
M  CHG  1  10   1
M  END
>  <i_m_ct_stereo_status>  (320) 
1

>  <s_m_source_file>  (320) 
/var/tmp/pbs.5076255.sched01/tmp7yh4k8o6/114t33l0ocj.sdf

>  <i_m_source_file_index>  (320) 
37

>  <i_lp_mmshare_version>  (320) 
48012

>  <i_f3d_flags>  (320) 
0

>  <s_epik_input>  (320) 
bjFbY0hdW2NIXVtjSF1jKGMxMilbQ0BASF0zW0NAQEhdNFtDSDJdW05IXVtDSDJdW0NAQEhdKFtDSDJdNClbQ0BIXTIz

>  <s_epik_cmdline>  (320) 
J2VwaWtfcHl0aG9uJywgJy1waHQnLCAnMi4wJywgJy1waCcsICc3LjAnLCAnLXRuJywgJzgnLCAnLW1hJywgJzIwMCcsICctaW1hZScsICc8aW5maWxlLm1hZT4nLCAnLW9tYWUnLCAnPG91dGZpbGUubWFlPic=

>  <r_lp_tautomer_probability>  (320) 
1

>  <r_epik_Ionization_Penalty>  (320) 
0.00516566

>  <r_epik_Ionization_Penalty_Charging>  (320) 
0.000126484

>  <r_epik_Ionization_Penalty_Neutral>  (320) 
0.00503918

>  <r_epik_State_Penalty>  (320) 
-0

>  <r_epik_Charging_Adjusted_Penalty>  (320) 
0.000126484

>  <i_epik_Tot_Q>  (320) 
1

>  <i_epik_Tot_abs_Q>  (320) 
1

>  <s_lp_Force_Field>  (320) 
OPLS3e

>  <r_lp_Energy>  (320) 
61.6013

>  <b_lp_Chiralities_Consistent>  (320) 
1

>  <s_lp_Variant>  (320) 
113:0-1

>  <s_i_glide_gridfile>  (320) 
pfpi4k_grid

>  <i_i_glide_lignum>  (320) 
37

>  <i_i_glide_rotatable_bonds>  (320) 
0

>  <r_i_docking_score>  (320) 
-3.76978

>  <r_i_glide_ligand_efficiency>  (320) 
-0.26927

>  <r_i_glide_ligand_efficiency_sa>  (320) 
-0.648979

>  <r_i_glide_ligand_efficiency_ln>  (320) 
-1.03592

>  <r_i_glide_gscore>  (320) 
-3.76978

>  <r_i_glide_lipo>  (320) 
-0.619076

>  <r_i_glide_hbond>  (320) 
-0.12329

>  <r_i_glide_metal>  (320) 
-0

>  <r_i_glide_rewards>  (320) 
-2.13231

>  <r_i_glide_evdw>  (320) 
-8.42422

>  <r_i_glide_ecoul>  (320) 
-2.72415

>  <r_i_glide_erotb>  (320) 
0

>  <r_i_glide_esite>  (320) 
-0.0652686

>  <r_i_glide_emodel>  (320) 
-17.6132

>  <r_i_glide_energy>  (320) 
-11.1484

>  <r_i_glide_einternal>  (320) 
0

>  <r_i_glide_intrahb_reward>  (320) 
-0

>  <i_i_glide_confnum>  (320) 
2

>  <i_i_glide_posenum>  (320) 
2

>  <r_i_glide_eff_state_penalty>  (320) 
0

>  <ligand_id>  (320) 
113

>  <original_smiles>  (320) 
c1cnc2c(c1)C1C3CNCC(C3)C21

>  <smiles>  (320) 
[H]c1nc2c(c([H])c1[H])C1([H])C2([H])C2([H])C([H])([H])C1([H])C([H])([H])[N+]([H])([H])C2([H])[H]

$$$$
114:0:0
     RDKit          3D

 35 38  0  0  1  0  0  0  0  0999 V2000
    8.2393   -3.0393   -0.9724 C   0  0  0  0  0  0  0  0  0  0  0  0
    6.9260   -2.8151   -1.2216 N   0  0  0  0  0  0  0  0  0  0  0  0
    6.3884   -3.5432   -0.2525 C   0  0  0  0  0  0  0  0  0  0  0  0
    7.2940   -4.1191    0.5430 N   0  0  0  0  0  0  0  0  0  0  0  0
    8.5313   -3.7992    0.0700 N   0  0  0  0  0  0  0  0  0  0  0  0
    7.1017   -4.9845    1.6794 C   0  0  0  0  0  0  0  0  0  0  0  0
    6.2977   -6.2411    1.3297 C   0  0  0  0  0  0  0  0  0  0  0  0
    4.8663   -5.9610    1.1720 N   0  0  0  0  0  0  0  0  0  0  0  0
    4.1087   -7.2179    1.3151 C   0  0  0  0  0  0  0  0  0  0  0  0
    2.6085   -7.1072    1.4806 C   0  0  0  0  0  0  0  0  0  0  0  0
    1.9610   -5.9474    1.3483 N   0  0  0  0  0  0  0  0  0  0  0  0
    0.6213   -6.3050    1.4826 O   0  0  0  0  0  0  0  0  0  0  0  0
    0.6299   -7.6253    1.7778 C   0  0  0  0  0  0  0  0  0  0  0  0
   -0.6876   -8.2180    2.1489 C   0  0  0  0  0  0  0  0  0  0  0  0
   -1.4081   -7.6803    3.3669 C   0  0  0  0  0  0  0  0  0  0  0  0
   -0.8151   -9.0675    3.3753 C   0  0  0  0  0  0  0  0  0  0  0  0
    1.8272   -8.1920    1.7271 N   0  0  0  0  0  0  0  0  0  0  0  0
    4.5468   -5.2600   -0.0838 C   0  0  0  0  0  0  0  0  0  0  0  0
    4.9462   -3.7723   -0.0669 C   0  0  0  0  0  0  0  0  0  0  0  0
    9.0173   -2.6215   -1.5968 H   0  0  0  0  0  0  0  0  0  0  0  0
    8.0782   -5.2577    2.0761 H   0  0  0  0  0  0  0  0  0  0  0  0
    6.5961   -4.4344    2.4705 H   0  0  0  0  0  0  0  0  0  0  0  0
    6.7238   -6.7078    0.4516 H   0  0  0  0  0  0  0  0  0  0  0  0
    6.4562   -6.9468    2.1313 H   0  0  0  0  0  0  0  0  0  0  0  0
    4.3196   -7.8526    0.4560 H   0  0  0  0  0  0  0  0  0  0  0  0
    4.4672   -7.7733    2.1792 H   0  0  0  0  0  0  0  0  0  0  0  0
   -1.2920   -8.4284    1.2704 H   0  0  0  0  0  0  0  0  0  0  0  0
   -0.9029   -6.9227    3.9744 H   0  0  0  0  0  0  0  0  0  0  0  0
   -2.4876   -7.6022    3.3378 H   0  0  0  0  0  0  0  0  0  0  0  0
   -1.4830   -9.9150    3.2834 H   0  0  0  0  0  0  0  0  0  0  0  0
    0.1063   -9.2471    3.9322 H   0  0  0  0  0  0  0  0  0  0  0  0
    4.9817   -5.8115   -0.9319 H   0  0  0  0  0  0  0  0  0  0  0  0
    3.4632   -5.2190   -0.2327 H   0  0  0  0  0  0  0  0  0  0  0  0
    4.6383   -3.2903    0.8558 H   0  0  0  0  0  0  0  0  0  0  0  0
    4.4334   -3.2892   -0.8917 H   0  0  0  0  0  0  0  0  0  0  0  0
  1  5  2  0
  1  2  1  0
  1 20  1  0
  2  3  2  0
  3 19  1  0
  3  4  1  0
  4  5  1  0
  4  6  1  0
  6  7  1  0
  6 21  1  0
  6 22  1  0
  7  8  1  0
  7 23  1  0
  7 24  1  0
  8  9  1  0
  8 18  1  0
  9 10  1  0
  9 25  1  0
  9 26  1  0
 10 17  1  0
 10 11  2  0
 11 12  1  0
 12 13  1  0
 13 14  1  0
 13 17  2  0
 14 16  1  0
 14 15  1  0
 14 27  1  0
 15 16  1  0
 15 28  1  0
 15 29  1  0
 16 30  1  0
 16 31  1  0
 18 19  1  0
 18 32  1  0
 18 33  1  0
 19 34  1  0
 19 35  1  0
M  END
>  <i_m_ct_stereo_status>  (321) 
1

>  <s_m_source_file>  (321) 
/var/tmp/pbs.5076255.sched01/tmp7yh4k8o6/114t33l0ocj.sdf

>  <i_m_source_file_index>  (321) 
38

>  <i_lp_mmshare_version>  (321) 
48012

>  <i_f3d_flags>  (321) 
0

>  <s_epik_input>  (321) 
bjFbY0hdbm4oYzEyKVtDSDJdW0NIMl1OKFtDSDJdW0NIMl0yKVtDSDJdYzNub2MobjMpW0NIXTRbQ0gyXVtDSDJdNA==

>  <s_epik_cmdline>  (321) 
J2VwaWtfcHl0aG9uJywgJy1waHQnLCAnMi4wJywgJy1waCcsICc3LjAnLCAnLXRuJywgJzgnLCAnLW1hJywgJzIwMCcsICctaW1hZScsICc8aW5maWxlLm1hZT4nLCAnLW9tYWUnLCAnPG91dGZpbGUubWFlPic=

>  <r_lp_tautomer_probability>  (321) 
1

>  <r_epik_Ionization_Penalty>  (321) 
0.00794141

>  <r_epik_Ionization_Penalty_Charging>  (321) 
0

>  <r_epik_Ionization_Penalty_Neutral>  (321) 
0.00794141

>  <r_epik_State_Penalty>  (321) 
-0

>  <r_epik_Charging_Adjusted_Penalty>  (321) 
0

>  <i_epik_Tot_Q>  (321) 
0

>  <i_epik_Tot_abs_Q>  (321) 
0

>  <s_lp_Force_Field>  (321) 
OPLS3e

>  <r_lp_Energy>  (321) 
16.6331

>  <b_lp_Chiralities_Consistent>  (321) 
1

>  <s_lp_Variant>  (321) 
114:0-1

>  <s_i_glide_gridfile>  (321) 
pfpi4k_grid

>  <i_i_glide_lignum>  (321) 
38

>  <i_i_glide_rotatable_bonds>  (321) 
3

>  <r_i_docking_score>  (321) 
-3.62353

>  <r_i_glide_ligand_efficiency>  (321) 
-0.190712

>  <r_i_glide_ligand_efficiency_sa>  (321) 
-0.508897

>  <r_i_glide_ligand_efficiency_ln>  (321) 
-0.918644

>  <r_i_glide_gscore>  (321) 
-3.62353

>  <r_i_glide_lipo>  (321) 
-0.309262

>  <r_i_glide_hbond>  (321) 
-0.0135522

>  <r_i_glide_metal>  (321) 
-0

>  <r_i_glide_rewards>  (321) 
-1.95788

>  <r_i_glide_evdw>  (321) 
-26.7833

>  <r_i_glide_ecoul>  (321) 
-4.08955

>  <r_i_glide_erotb>  (321) 
0.783724

>  <r_i_glide_esite>  (321) 
-0.173966

>  <r_i_glide_emodel>  (321) 
-36.6917

>  <r_i_glide_energy>  (321) 
-30.8729

>  <r_i_glide_einternal>  (321) 
2.48574

>  <r_i_glide_intrahb_reward>  (321) 
-0

>  <i_i_glide_confnum>  (321) 
1

>  <i_i_glide_posenum>  (321) 
9

>  <r_i_glide_eff_state_penalty>  (321) 
0

>  <ligand_id>  (321) 
114

>  <original_smiles>  (321) 
c1nc2n(n1)CCN(Cc1noc(C3CC3)n1)CC2

>  <smiles>  (321) 
[H]c1nc2n(n1)C([H])([H])C([H])([H])N(C([H])([H])c1noc(C3([H])C([H])([H])C3([H])[H])n1)C([H])([H])C2([H])[H]

$$$$
114:0:1
     RDKit          3D

 35 38  0  0  1  0  0  0  0  0999 V2000
    8.2556   -2.8197   -0.6446 C   0  0  0  0  0  0  0  0  0  0  0  0
    6.9255   -2.5667   -0.8659 N   0  0  0  0  0  0  0  0  0  0  0  0
    6.4005   -3.3966    0.0075 C   0  0  0  0  0  0  0  0  0  0  0  0
    7.2979   -4.0850    0.7262 N   0  0  0  0  0  0  0  0  0  0  0  0
    8.5301   -3.7210    0.3063 N   0  0  0  0  0  0  0  0  0  0  0  0
    7.0945   -5.0889    1.7406 C   0  0  0  0  0  0  0  0  0  0  0  0
    6.2813   -6.2786    1.2115 C   0  0  0  0  0  0  0  0  0  0  0  0
    4.8447   -5.9675    1.1397 N   0  0  0  0  0  0  0  0  0  0  0  0
    4.0810   -7.2296    1.0782 C   0  0  0  0  0  0  0  0  0  0  0  0
    2.6047   -7.1668    1.3922 C   0  0  0  0  0  0  0  0  0  0  0  0
    1.7827   -6.2589    0.8466 N   0  0  0  0  0  0  0  0  0  0  0  0
    0.5489   -6.5390    1.4177 O   0  0  0  0  0  0  0  0  0  0  0  0
    0.7583   -7.5762    2.2573 C   0  0  0  0  0  0  0  0  0  0  0  0
   -0.3981   -8.0392    3.0458 C   0  0  0  0  0  0  0  0  0  0  0  0
   -1.0598   -7.0660    4.0100 C   0  0  0  0  0  0  0  0  0  0  0  0
   -0.2790   -8.2540    4.5344 C   0  0  0  0  0  0  0  0  0  0  0  0
    2.0073   -8.0598    2.2375 N   0  0  0  0  0  0  0  0  0  0  0  0
    4.5334   -5.0957   -0.0067 C   0  0  0  0  0  0  0  0  0  0  0  0
    4.9588   -3.6356    0.1838 C   0  0  0  0  0  0  0  0  0  0  0  0
    9.0269   -2.3255   -1.1853 H   0  0  0  0  0  0  0  0  0  0  0  0
    8.0698   -5.4186    2.0978 H   0  0  0  0  0  0  0  0  0  0  0  0
    6.5904   -4.6537    2.6011 H   0  0  0  0  0  0  0  0  0  0  0  0
    6.6920   -6.6385    0.2723 H   0  0  0  0  0  0  0  0  0  0  0  0
    6.4452   -7.0827    1.9251 H   0  0  0  0  0  0  0  0  0  0  0  0
    4.2171   -7.6751    0.1019 H   0  0  0  0  0  0  0  0  0  0  0  0
    4.5098   -7.9492    1.7754 H   0  0  0  0  0  0  0  0  0  0  0  0
   -1.0399   -8.6694    2.4352 H   0  0  0  0  0  0  0  0  0  0  0  0
   -0.6100   -6.0821    4.1364 H   0  0  0  0  0  0  0  0  0  0  0  0
   -2.1404   -7.0995    4.1034 H   0  0  0  0  0  0  0  0  0  0  0  0
   -0.8301   -9.0927    4.9400 H   0  0  0  0  0  0  0  0  0  0  0  0
    0.7098   -8.0761    4.9577 H   0  0  0  0  0  0  0  0  0  0  0  0
    4.9223   -5.5428   -0.9311 H   0  0  0  0  0  0  0  0  0  0  0  0
    3.4657   -4.9689   -0.1287 H   0  0  0  0  0  0  0  0  0  0  0  0
    4.6667   -3.2656    1.1661 H   0  0  0  0  0  0  0  0  0  0  0  0
    4.4417   -3.0460   -0.5733 H   0  0  0  0  0  0  0  0  0  0  0  0
  1  5  2  0
  1  2  1  0
  1 20  1  0
  2  3  2  0
  3 19  1  0
  3  4  1  0
  4  5  1  0
  4  6  1  0
  6  7  1  0
  6 21  1  0
  6 22  1  0
  7  8  1  0
  7 23  1  0
  7 24  1  0
  8  9  1  0
  8 18  1  0
  9 10  1  0
  9 25  1  0
  9 26  1  0
 10 17  1  0
 10 11  2  0
 11 12  1  0
 12 13  1  0
 13 14  1  0
 13 17  2  0
 14 16  1  0
 14 15  1  0
 14 27  1  0
 15 16  1  0
 15 28  1  0
 15 29  1  0
 16 30  1  0
 16 31  1  0
 18 19  1  0
 18 32  1  0
 18 33  1  0
 19 34  1  0
 19 35  1  0
M  END
>  <i_m_ct_stereo_status>  (322) 
1

>  <s_m_source_file>  (322) 
/var/tmp/pbs.5076255.sched01/tmp7yh4k8o6/114t33l0ocj.sdf

>  <i_m_source_file_index>  (322) 
38

>  <i_lp_mmshare_version>  (322) 
48012

>  <i_f3d_flags>  (322) 
0

>  <s_epik_input>  (322) 
bjFbY0hdbm4oYzEyKVtDSDJdW0NIMl1OKFtDSDJdW0NIMl0yKVtDSDJdYzNub2MobjMpW0NIXTRbQ0gyXVtDSDJdNA==

>  <s_epik_cmdline>  (322) 
J2VwaWtfcHl0aG9uJywgJy1waHQnLCAnMi4wJywgJy1waCcsICc3LjAnLCAnLXRuJywgJzgnLCAnLW1hJywgJzIwMCcsICctaW1hZScsICc8aW5maWxlLm1hZT4nLCAnLW9tYWUnLCAnPG91dGZpbGUubWFlPic=

>  <r_lp_tautomer_probability>  (322) 
1

>  <r_epik_Ionization_Penalty>  (322) 
0.00794141

>  <r_epik_Ionization_Penalty_Charging>  (322) 
0

>  <r_epik_Ionization_Penalty_Neutral>  (322) 
0.00794141

>  <r_epik_State_Penalty>  (322) 
-0

>  <r_epik_Charging_Adjusted_Penalty>  (322) 
0

>  <i_epik_Tot_Q>  (322) 
0

>  <i_epik_Tot_abs_Q>  (322) 
0

>  <s_lp_Force_Field>  (322) 
OPLS3e

>  <r_lp_Energy>  (322) 
16.6331

>  <b_lp_Chiralities_Consistent>  (322) 
1

>  <s_lp_Variant>  (322) 
114:0-1

>  <s_i_glide_gridfile>  (322) 
pfpi4k_grid

>  <i_i_glide_lignum>  (322) 
38

>  <i_i_glide_rotatable_bonds>  (322) 
3

>  <r_i_docking_score>  (322) 
-3.61202

>  <r_i_glide_ligand_efficiency>  (322) 
-0.190106

>  <r_i_glide_ligand_efficiency_sa>  (322) 
-0.50728

>  <r_i_glide_ligand_efficiency_ln>  (322) 
-0.915725

>  <r_i_glide_gscore>  (322) 
-3.61202

>  <r_i_glide_lipo>  (322) 
-0.315155

>  <r_i_glide_hbond>  (322) 
-0.0621092

>  <r_i_glide_metal>  (322) 
-0

>  <r_i_glide_rewards>  (322) 
-1.94963

>  <r_i_glide_evdw>  (322) 
-25.8114

>  <r_i_glide_ecoul>  (322) 
-4.03437

>  <r_i_glide_erotb>  (322) 
0.783724

>  <r_i_glide_esite>  (322) 
-0.173129

>  <r_i_glide_emodel>  (322) 
-35.9845

>  <r_i_glide_energy>  (322) 
-29.8458

>  <r_i_glide_einternal>  (322) 
2.03301

>  <r_i_glide_intrahb_reward>  (322) 
-0

>  <i_i_glide_confnum>  (322) 
1

>  <i_i_glide_posenum>  (322) 
16

>  <r_i_glide_eff_state_penalty>  (322) 
0

>  <ligand_id>  (322) 
114

>  <original_smiles>  (322) 
c1nc2n(n1)CCN(Cc1noc(C3CC3)n1)CC2

>  <smiles>  (322) 
[H]c1nc2n(n1)C([H])([H])C([H])([H])N(C([H])([H])c1noc(C3([H])C([H])([H])C3([H])[H])n1)C([H])([H])C2([H])[H]

$$$$
114:0:2
     RDKit          3D

 35 38  0  0  1  0  0  0  0  0999 V2000
   -1.3309    1.3004    5.0601 C   0  0  0  0  0  0  0  0  0  0  0  0
   -0.9128    1.7677    3.8416 N   0  0  0  0  0  0  0  0  0  0  0  0
   -0.2620    0.6872    3.4060 C   0  0  0  0  0  0  0  0  0  0  0  0
   -0.2785   -0.3231    4.2634 N   0  0  0  0  0  0  0  0  0  0  0  0
   -0.9926    0.0393    5.3577 N   0  0  0  0  0  0  0  0  0  0  0  0
    0.3341   -1.6316    4.1745 C   0  0  0  0  0  0  0  0  0  0  0  0
    1.8488   -1.4957    3.9772 C   0  0  0  0  0  0  0  0  0  0  0  0
    2.1764   -1.2072    2.5704 N   0  0  0  0  0  0  0  0  0  0  0  0
    3.6010   -1.5266    2.3573 C   0  0  0  0  0  0  0  0  0  0  0  0
    4.0069   -1.5786    0.9092 C   0  0  0  0  0  0  0  0  0  0  0  0
    4.8586   -0.6986    0.3886 N   0  0  0  0  0  0  0  0  0  0  0  0
    4.9143   -1.0797   -0.9661 O   0  0  0  0  0  0  0  0  0  0  0  0
    4.0673   -2.1330   -1.0919 C   0  0  0  0  0  0  0  0  0  0  0  0
    3.8550   -2.7375   -2.4323 C   0  0  0  0  0  0  0  0  0  0  0  0
    3.3236   -1.9056   -3.5727 C   0  0  0  0  0  0  0  0  0  0  0  0
    2.4585   -2.9762   -2.9539 C   0  0  0  0  0  0  0  0  0  0  0  0
    3.5390   -2.5408    0.0594 N   0  0  0  0  0  0  0  0  0  0  0  0
    1.9493    0.2055    2.2040 C   0  0  0  0  0  0  0  0  0  0  0  0
    0.4608    0.6023    2.1023 C   0  0  0  0  0  0  0  0  0  0  0  0
   -1.8963    1.9130    5.7633 H   0  0  0  0  0  0  0  0  0  0  0  0
    0.1109   -2.1818    5.0856 H   0  0  0  0  0  0  0  0  0  0  0  0
   -0.1311   -2.1887    3.3648 H   0  0  0  0  0  0  0  0  0  0  0  0
    2.3079   -0.8053    4.6907 H   0  0  0  0  0  0  0  0  0  0  0  0
    2.2510   -2.4806    4.2053 H   0  0  0  0  0  0  0  0  0  0  0  0
    4.2695   -0.8391    2.8908 H   0  0  0  0  0  0  0  0  0  0  0  0
    3.8213   -2.5238    2.7475 H   0  0  0  0  0  0  0  0  0  0  0  0
    4.6158   -3.4835   -2.6216 H   0  0  0  0  0  0  0  0  0  0  0  0
    3.0774   -0.8695   -3.3560 H   0  0  0  0  0  0  0  0  0  0  0  0
    3.7108   -2.0965   -4.5662 H   0  0  0  0  0  0  0  0  0  0  0  0
    2.2738   -3.8709   -3.5371 H   0  0  0  0  0  0  0  0  0  0  0  0
    1.6326   -2.6593   -2.3238 H   0  0  0  0  0  0  0  0  0  0  0  0
    2.4858    0.8904    2.8664 H   0  0  0  0  0  0  0  0  0  0  0  0
    2.3572    0.3580    1.1989 H   0  0  0  0  0  0  0  0  0  0  0  0
   -0.0767   -0.0887    1.4583 H   0  0  0  0  0  0  0  0  0  0  0  0
    0.3929    1.5822    1.6290 H   0  0  0  0  0  0  0  0  0  0  0  0
  1  5  2  0
  1  2  1  0
  1 20  1  0
  2  3  2  0
  3 19  1  0
  3  4  1  0
  4  5  1  0
  4  6  1  0
  6  7  1  0
  6 21  1  0
  6 22  1  0
  7  8  1  0
  7 23  1  0
  7 24  1  0
  8  9  1  0
  8 18  1  0
  9 10  1  0
  9 25  1  0
  9 26  1  0
 10 17  1  0
 10 11  2  0
 11 12  1  0
 12 13  1  0
 13 14  1  0
 13 17  2  0
 14 16  1  0
 14 15  1  0
 14 27  1  0
 15 16  1  0
 15 28  1  0
 15 29  1  0
 16 30  1  0
 16 31  1  0
 18 19  1  0
 18 32  1  0
 18 33  1  0
 19 34  1  0
 19 35  1  0
M  END
>  <i_m_ct_stereo_status>  (323) 
1

>  <s_m_source_file>  (323) 
/var/tmp/pbs.5076255.sched01/tmp7yh4k8o6/114t33l0ocj.sdf

>  <i_m_source_file_index>  (323) 
38

>  <i_lp_mmshare_version>  (323) 
48012

>  <i_f3d_flags>  (323) 
0

>  <s_epik_input>  (323) 
bjFbY0hdbm4oYzEyKVtDSDJdW0NIMl1OKFtDSDJdW0NIMl0yKVtDSDJdYzNub2MobjMpW0NIXTRbQ0gyXVtDSDJdNA==

>  <s_epik_cmdline>  (323) 
J2VwaWtfcHl0aG9uJywgJy1waHQnLCAnMi4wJywgJy1waCcsICc3LjAnLCAnLXRuJywgJzgnLCAnLW1hJywgJzIwMCcsICctaW1hZScsICc8aW5maWxlLm1hZT4nLCAnLW9tYWUnLCAnPG91dGZpbGUubWFlPic=

>  <r_lp_tautomer_probability>  (323) 
1

>  <r_epik_Ionization_Penalty>  (323) 
0.00794141

>  <r_epik_Ionization_Penalty_Charging>  (323) 
0

>  <r_epik_Ionization_Penalty_Neutral>  (323) 
0.00794141

>  <r_epik_State_Penalty>  (323) 
-0

>  <r_epik_Charging_Adjusted_Penalty>  (323) 
0

>  <i_epik_Tot_Q>  (323) 
0

>  <i_epik_Tot_abs_Q>  (323) 
0

>  <s_lp_Force_Field>  (323) 
OPLS3e

>  <r_lp_Energy>  (323) 
16.6331

>  <b_lp_Chiralities_Consistent>  (323) 
1

>  <s_lp_Variant>  (323) 
114:0-1

>  <s_i_glide_gridfile>  (323) 
pfpi4k_grid

>  <i_i_glide_lignum>  (323) 
38

>  <i_i_glide_rotatable_bonds>  (323) 
3

>  <r_i_docking_score>  (323) 
-2.73619

>  <r_i_glide_ligand_efficiency>  (323) 
-0.14401

>  <r_i_glide_ligand_efficiency_sa>  (323) 
-0.384276

>  <r_i_glide_ligand_efficiency_ln>  (323) 
-0.693682

>  <r_i_glide_gscore>  (323) 
-2.73619

>  <r_i_glide_lipo>  (323) 
-0.321642

>  <r_i_glide_hbond>  (323) 
0

>  <r_i_glide_metal>  (323) 
-0

>  <r_i_glide_rewards>  (323) 
-1.63435

>  <r_i_glide_evdw>  (323) 
-27.5874

>  <r_i_glide_ecoul>  (323) 
-0.393086

>  <r_i_glide_erotb>  (323) 
0.783724

>  <r_i_glide_esite>  (323) 
-0.125584

>  <r_i_glide_emodel>  (323) 
-33.6396

>  <r_i_glide_energy>  (323) 
-27.9805

>  <r_i_glide_einternal>  (323) 
0.0519327

>  <r_i_glide_intrahb_reward>  (323) 
-0

>  <i_i_glide_confnum>  (323) 
1

>  <i_i_glide_posenum>  (323) 
36

>  <r_i_glide_eff_state_penalty>  (323) 
0

>  <ligand_id>  (323) 
114

>  <original_smiles>  (323) 
c1nc2n(n1)CCN(Cc1noc(C3CC3)n1)CC2

>  <smiles>  (323) 
[H]c1nc2n(n1)C([H])([H])C([H])([H])N(C([H])([H])c1noc(C3([H])C([H])([H])C3([H])[H])n1)C([H])([H])C2([H])[H]

$$$$
