0:0:0
     RDKit          3D

 36 41  0  0  1  0  0  0  0  0999 V2000
    3.1056   -0.6483   -3.4391 C   0  0  0  0  0  0  0  0  0  0  0  0
    3.9848   -1.8427   -3.0995 C   0  0  0  0  0  0  0  0  0  0  0  0
    4.2379   -2.7157   -3.9213 O   0  0  0  0  0  0  0  0  0  0  0  0
    4.4223   -1.7850   -1.8325 O   0  0  0  0  0  0  0  0  0  0  0  0
    5.4012   -2.6996   -1.3465 C   0  0  2  0  0  0  0  0  0  0  0  0
    4.8784   -4.0451   -0.7447 C   0  0  2  0  0  0  0  0  0  0  0  0
    3.3464   -4.0583   -0.5854 C   0  0  0  0  0  0  0  0  0  0  0  0
    2.7982   -3.0730    0.4433 C   0  0  1  0  0  0  0  0  0  0  0  0
    2.7617   -3.6973    1.7341 O   0  0  0  0  0  0  0  0  0  0  0  0
    4.1119   -3.3572    2.1388 C   0  0  2  0  0  0  0  0  0  0  0  0
    4.7743   -4.6856    1.7905 C   0  0  0  0  0  0  0  0  0  0  0  0
    5.6604   -4.5649    0.5237 C   0  0  2  0  0  0  0  0  0  0  0  0
    6.8629   -3.6901    0.9610 C   0  0  1  0  0  0  0  0  0  0  0  0
    7.9594   -3.4703   -0.0788 C   0  0  0  0  0  0  0  0  0  0  0  0
    8.9656   -4.1553   -0.1745 O   0  0  0  0  0  0  0  0  0  0  0  0
    7.6346   -2.3629   -0.7692 O   0  0  0  0  0  0  0  0  0  0  0  0
    6.3422   -1.8945   -0.4099 C   0  0  2  0  0  0  0  0  0  0  0  0
    6.3251   -2.2909    1.0784 C   0  0  1  0  0  0  0  0  0  0  0  0
    5.0133   -2.1743    1.8482 C   0  0  1  0  0  0  0  0  0  0  0  0
    3.7223   -2.1702    1.1710 C   0  0  1  0  0  0  0  0  0  0  0  0
    2.2370   -0.6275   -2.7814 H   0  0  0  0  0  0  0  0  0  0  0  0
    2.7713   -0.6864   -4.4767 H   0  0  0  0  0  0  0  0  0  0  0  0
    3.6600    0.2778   -3.2868 H   0  0  0  0  0  0  0  0  0  0  0  0
    6.0131   -2.9888   -2.2030 H   0  0  0  0  0  0  0  0  0  0  0  0
    5.0413   -4.7930   -1.5164 H   0  0  0  0  0  0  0  0  0  0  0  0
    2.8700   -3.8592   -1.5529 H   0  0  0  0  0  0  0  0  0  0  0  0
    2.9966   -5.0580   -0.3261 H   0  0  0  0  0  0  0  0  0  0  0  0
    1.8547   -2.6455    0.1861 H   0  0  0  0  0  0  0  0  0  0  0  0
    5.3874   -4.9973    2.6520 H   0  0  0  0  0  0  0  0  0  0  0  0
    4.0160   -5.4644    1.6756 H   0  0  0  0  0  0  0  0  0  0  0  0
    6.0344   -5.5651    0.3016 H   0  0  0  0  0  0  0  0  0  0  0  0
    7.3128   -4.0586    1.8871 H   0  0  0  0  0  0  0  0  0  0  0  0
    6.2278   -0.8165   -0.5489 H   0  0  0  0  0  0  0  0  0  0  0  0
    7.0294   -1.6569    1.6158 H   0  0  0  0  0  0  0  0  0  0  0  0
    5.1324   -1.4880    2.6817 H   0  0  0  0  0  0  0  0  0  0  0  0
    3.1353   -1.3168    1.5199 H   0  0  0  0  0  0  0  0  0  0  0  0
  1  2  1  0
  1 21  1  0
  1 22  1  0
  1 23  1  0
  2  3  2  0
  2  4  1  0
  4  5  1  0
  5 17  1  0
  5  6  1  0
  5 24  1  6
  6 12  1  0
  6  7  1  0
  6 25  1  6
  7  8  1  0
  7 26  1  0
  7 27  1  0
  8 20  1  0
  8  9  1  0
  8 28  1  6
 10  9  1  1
 10 19  1  0
 10 20  1  0
 10 11  1  0
 11 12  1  0
 11 29  1  0
 11 30  1  0
 12 13  1  0
 12 31  1  6
 13 18  1  0
 13 14  1  0
 13 32  1  1
 14 15  2  0
 14 16  1  0
 16 17  1  0
 17 18  1  0
 17 33  1  1
 18 19  1  0
 18 34  1  1
 19 20  1  0
 19 35  1  1
 20 36  1  1
M  END
>  <i_m_ct_stereo_status>  (1) 
1

>  <s_m_source_file>  (1) 
/var/tmp/pbs.5076255.sched01/tmpsofmo5yl/0au1p7r3z.sdf

>  <i_m_source_file_index>  (1) 
1

>  <i_lp_mmshare_version>  (1) 
48012

>  <i_f3d_flags>  (1) 
0

>  <s_epik_input>  (1) 
Tz1DMU9bQ0BIXTJbQ0BIXShPQyg9TylbQ0gzXSlbQ0hdKFtDSDJdW0NAQEhdKE8zKVtDQEBIXTQ1KVtDQEhdKFtDSDJdNilbQ0BASF0xW0NAQEhdMltDQEBIXTVbQ0BAXTM0Ng==

>  <s_epik_cmdline>  (1) 
J2VwaWtfcHl0aG9uJywgJy1waHQnLCAnMi4wJywgJy1waCcsICc3LjAnLCAnLXRuJywgJzgnLCAnLW1hJywgJzIwMCcsICctaW1hZScsICc8aW5maWxlLm1hZT4nLCAnLW9tYWUnLCAnPG91dGZpbGUubWFlPic=

>  <r_lp_tautomer_probability>  (1) 
1

>  <r_epik_Ionization_Penalty>  (1) 
1.96513e-11

>  <r_epik_Ionization_Penalty_Charging>  (1) 
0

>  <r_epik_Ionization_Penalty_Neutral>  (1) 
1.96513e-11

>  <r_epik_State_Penalty>  (1) 
-0

>  <r_epik_Charging_Adjusted_Penalty>  (1) 
0

>  <i_epik_Tot_Q>  (1) 
0

>  <i_epik_Tot_abs_Q>  (1) 
0

>  <s_epik_Chemistry_Notes>  (1) 
This compound has an ester and may undergo hydrolysis at high or low pH.

>  <s_lp_Force_Field>  (1) 
OPLS3e

>  <r_lp_Energy>  (1) 
100.521

>  <b_lp_Chiralities_Consistent>  (1) 
1

>  <s_lp_Variant>  (1) 
0:0-1

>  <s_i_glide_gridfile>  (1) 
pfpi4k_grid

>  <i_i_glide_lignum>  (1) 
1

>  <i_i_glide_rotatable_bonds>  (1) 
2

>  <r_i_docking_score>  (1) 
-4.74064

>  <r_i_glide_ligand_efficiency>  (1) 
-0.237032

>  <r_i_glide_ligand_efficiency_sa>  (1) 
-0.643404

>  <r_i_glide_ligand_efficiency_ln>  (1) 
-1.18643

>  <r_i_glide_gscore>  (1) 
-4.74064

>  <r_i_glide_lipo>  (1) 
-0.534738

>  <r_i_glide_hbond>  (1) 
-0.401446

>  <r_i_glide_metal>  (1) 
-0

>  <r_i_glide_rewards>  (1) 
-1.93904

>  <r_i_glide_evdw>  (1) 
-26.4228

>  <r_i_glide_ecoul>  (1) 
-3.62854

>  <r_i_glide_erotb>  (1) 
0

>  <r_i_glide_esite>  (1) 
0

>  <r_i_glide_emodel>  (1) 
-39.0313

>  <r_i_glide_energy>  (1) 
-30.0513

>  <r_i_glide_einternal>  (1) 
0.250943

>  <r_i_glide_intrahb_reward>  (1) 
-0

>  <i_i_glide_confnum>  (1) 
2

>  <i_i_glide_posenum>  (1) 
8

>  <r_i_glide_eff_state_penalty>  (1) 
0

>  <ligand_id>  (1) 
0

>  <original_smiles>  (1) 
CC(=O)OC1C2CC3OC45CC2C2C(=O)OC1C2C4C35

>  <smiles>  (1) 
[H]C([H])([H])C(=O)OC1([H])C2([H])OC(=O)C3([H])C4([H])C([H])([H])C56OC([H])(C([H])([H])C14[H])C5([H])C6([H])C23[H]

$$$$
0:0:1
     RDKit          3D

 36 41  0  0  1  0  0  0  0  0999 V2000
    4.6111   -3.7830   -3.9531 C   0  0  0  0  0  0  0  0  0  0  0  0
    4.0309   -2.5384   -3.2992 C   0  0  0  0  0  0  0  0  0  0  0  0
    3.2734   -1.8098   -3.9209 O   0  0  0  0  0  0  0  0  0  0  0  0
    4.4133   -2.3088   -2.0268 O   0  0  0  0  0  0  0  0  0  0  0  0
    5.4034   -3.0797   -1.3544 C   0  0  2  0  0  0  0  0  0  0  0  0
    4.8620   -4.2821   -0.5130 C   0  0  2  0  0  0  0  0  0  0  0  0
    3.3307   -4.2494   -0.3309 C   0  0  0  0  0  0  0  0  0  0  0  0
    2.7955   -3.0607    0.4826 C   0  0  1  0  0  0  0  0  0  0  0  0
    2.7826   -3.4078    1.8782 O   0  0  0  0  0  0  0  0  0  0  0  0
    4.1387   -3.0269    2.1711 C   0  0  2  0  0  0  0  0  0  0  0  0
    4.8094   -4.4211    2.0871 C   0  0  0  0  0  0  0  0  0  0  0  0
    5.6834   -4.5594    0.8119 C   0  0  2  0  0  0  0  0  0  0  0  0
    6.8929   -3.6200    1.0499 C   0  0  1  0  0  0  0  0  0  0  0  0
    7.9817   -3.5966   -0.0329 C   0  0  0  0  0  0  0  0  0  0  0  0
    8.9740   -4.2838   -0.0276 O   0  0  0  0  0  0  0  0  0  0  0  0
    7.6412   -2.6196   -0.8964 O   0  0  0  0  0  0  0  0  0  0  0  0
    6.3525   -2.1019   -0.6151 C   0  0  2  0  0  0  0  0  0  0  0  0
    6.3650   -2.2085    0.9205 C   0  0  1  0  0  0  0  0  0  0  0  0
    5.0543   -1.9394    1.6626 C   0  0  1  0  0  0  0  0  0  0  0  0
    3.7629   -2.0535    1.0029 C   0  0  1  0  0  0  0  0  0  0  0  0
    5.6915   -3.7199   -4.0492 H   0  0  0  0  0  0  0  0  0  0  0  0
    4.1924   -3.9357   -4.9467 H   0  0  0  0  0  0  0  0  0  0  0  0
    4.3682   -4.6550   -3.3612 H   0  0  0  0  0  0  0  0  0  0  0  0
    6.0413   -3.5453   -2.1052 H   0  0  0  0  0  0  0  0  0  0  0  0
    5.0258   -5.1617   -1.1352 H   0  0  0  0  0  0  0  0  0  0  0  0
    2.8486   -4.2462   -1.3075 H   0  0  0  0  0  0  0  0  0  0  0  0
    2.9760   -5.1803    0.1181 H   0  0  0  0  0  0  0  0  0  0  0  0
    1.8447   -2.6678    0.1482 H   0  0  0  0  0  0  0  0  0  0  0  0
    5.4362   -4.5589    2.9790 H   0  0  0  0  0  0  0  0  0  0  0  0
    4.0540   -5.2134    2.1345 H   0  0  0  0  0  0  0  0  0  0  0  0
    6.0522   -5.5919    0.7752 H   0  0  0  0  0  0  0  0  0  0  0  0
    7.3507   -3.8126    2.0162 H   0  0  0  0  0  0  0  0  0  0  0  0
    6.2319   -1.0786   -0.9685 H   0  0  0  0  0  0  0  0  0  0  0  0
    7.1022   -1.4999    1.3034 H   0  0  0  0  0  0  0  0  0  0  0  0
    5.1769   -1.1180    2.3638 H   0  0  0  0  0  0  0  0  0  0  0  0
    3.2115   -1.1120    1.1554 H   0  0  0  0  0  0  0  0  0  0  0  0
  1  2  1  0
  1 21  1  0
  1 22  1  0
  1 23  1  0
  2  3  2  0
  2  4  1  0
  4  5  1  0
  5 17  1  0
  5  6  1  0
  5 24  1  6
  6 12  1  0
  6  7  1  0
  6 25  1  6
  7  8  1  0
  7 26  1  0
  7 27  1  0
  8 20  1  0
  8  9  1  0
  8 28  1  6
 10  9  1  1
 10 19  1  0
 10 20  1  0
 10 11  1  0
 11 12  1  0
 11 29  1  0
 11 30  1  0
 12 13  1  0
 12 31  1  6
 13 18  1  0
 13 14  1  0
 13 32  1  1
 14 15  2  0
 14 16  1  0
 16 17  1  0
 17 18  1  0
 17 33  1  1
 18 19  1  0
 18 34  1  1
 19 20  1  0
 19 35  1  1
 20 36  1  1
M  END
>  <i_m_ct_stereo_status>  (2) 
1

>  <s_m_source_file>  (2) 
/var/tmp/pbs.5076255.sched01/tmpsofmo5yl/0au1p7r3z.sdf

>  <i_m_source_file_index>  (2) 
1

>  <i_lp_mmshare_version>  (2) 
48012

>  <i_f3d_flags>  (2) 
0

>  <s_epik_input>  (2) 
Tz1DMU9bQ0BIXTJbQ0BIXShPQyg9TylbQ0gzXSlbQ0hdKFtDSDJdW0NAQEhdKE8zKVtDQEBIXTQ1KVtDQEhdKFtDSDJdNilbQ0BASF0xW0NAQEhdMltDQEBIXTVbQ0BAXTM0Ng==

>  <s_epik_cmdline>  (2) 
J2VwaWtfcHl0aG9uJywgJy1waHQnLCAnMi4wJywgJy1waCcsICc3LjAnLCAnLXRuJywgJzgnLCAnLW1hJywgJzIwMCcsICctaW1hZScsICc8aW5maWxlLm1hZT4nLCAnLW9tYWUnLCAnPG91dGZpbGUubWFlPic=

>  <r_lp_tautomer_probability>  (2) 
1

>  <r_epik_Ionization_Penalty>  (2) 
1.96513e-11

>  <r_epik_Ionization_Penalty_Charging>  (2) 
0

>  <r_epik_Ionization_Penalty_Neutral>  (2) 
1.96513e-11

>  <r_epik_State_Penalty>  (2) 
-0

>  <r_epik_Charging_Adjusted_Penalty>  (2) 
0

>  <i_epik_Tot_Q>  (2) 
0

>  <i_epik_Tot_abs_Q>  (2) 
0

>  <s_epik_Chemistry_Notes>  (2) 
This compound has an ester and may undergo hydrolysis at high or low pH.

>  <s_lp_Force_Field>  (2) 
OPLS3e

>  <r_lp_Energy>  (2) 
100.521

>  <b_lp_Chiralities_Consistent>  (2) 
1

>  <s_lp_Variant>  (2) 
0:0-1

>  <s_i_glide_gridfile>  (2) 
pfpi4k_grid

>  <i_i_glide_lignum>  (2) 
1

>  <i_i_glide_rotatable_bonds>  (2) 
2

>  <r_i_docking_score>  (2) 
-4.18395

>  <r_i_glide_ligand_efficiency>  (2) 
-0.209197

>  <r_i_glide_ligand_efficiency_sa>  (2) 
-0.567849

>  <r_i_glide_ligand_efficiency_ln>  (2) 
-1.0471

>  <r_i_glide_gscore>  (2) 
-4.18395

>  <r_i_glide_lipo>  (2) 
-0.41623

>  <r_i_glide_hbond>  (2) 
-0.194957

>  <r_i_glide_metal>  (2) 
-0

>  <r_i_glide_rewards>  (2) 
-2.02429

>  <r_i_glide_evdw>  (2) 
-26.2109

>  <r_i_glide_ecoul>  (2) 
-1.58614

>  <r_i_glide_erotb>  (2) 
0

>  <r_i_glide_esite>  (2) 
0

>  <r_i_glide_emodel>  (2) 
-33.1577

>  <r_i_glide_energy>  (2) 
-27.7971

>  <r_i_glide_einternal>  (2) 
5.07615

>  <r_i_glide_intrahb_reward>  (2) 
-0

>  <i_i_glide_confnum>  (2) 
2

>  <i_i_glide_posenum>  (2) 
32

>  <r_i_glide_eff_state_penalty>  (2) 
0

>  <ligand_id>  (2) 
0

>  <original_smiles>  (2) 
CC(=O)OC1C2CC3OC45CC2C2C(=O)OC1C2C4C35

>  <smiles>  (2) 
[H]C([H])([H])C(=O)OC1([H])C2([H])OC(=O)C3([H])C4([H])C([H])([H])C56OC([H])(C([H])([H])C14[H])C5([H])C6([H])C23[H]

$$$$
0:0:2
     RDKit          3D

 36 41  0  0  1  0  0  0  0  0999 V2000
    2.0538    0.8681    1.7836 C   0  0  0  0  0  0  0  0  0  0  0  0
    2.3048   -0.5948    2.1451 C   0  0  0  0  0  0  0  0  0  0  0  0
    1.8543   -1.0961    3.1615 O   0  0  0  0  0  0  0  0  0  0  0  0
    3.0571   -1.2098    1.2135 O   0  0  0  0  0  0  0  0  0  0  0  0
    3.3425   -2.6038    1.2881 C   0  0  2  0  0  0  0  0  0  0  0  0
    4.7721   -2.9350    1.8336 C   0  0  2  0  0  0  0  0  0  0  0  0
    5.6623   -1.6653    1.9490 C   0  0  0  0  0  0  0  0  0  0  0  0
    6.0225   -1.0236    0.6159 C   0  0  1  0  0  0  0  0  0  0  0  0
    7.2189   -1.5873    0.0800 O   0  0  0  0  0  0  0  0  0  0  0  0
    6.5889   -2.7032   -0.5962 C   0  0  2  0  0  0  0  0  0  0  0  0
    6.8030   -3.7943    0.4360 C   0  0  0  0  0  0  0  0  0  0  0  0
    5.4731   -4.1773    1.1431 C   0  0  2  0  0  0  0  0  0  0  0  0
    4.6332   -4.9000    0.0521 C   0  0  1  0  0  0  0  0  0  0  0  0
    3.3027   -5.4473    0.5100 C   0  0  0  0  0  0  0  0  0  0  0  0
    3.1201   -6.5898    0.9203 O   0  0  0  0  0  0  0  0  0  0  0  0
    2.3846   -4.4967    0.3197 O   0  0  0  0  0  0  0  0  0  0  0  0
    2.9911   -3.2714   -0.0735 C   0  0  2  0  0  0  0  0  0  0  0  0
    4.1717   -3.8207   -0.8876 C   0  0  1  0  0  0  0  0  0  0  0  0
    5.2681   -2.8538   -1.3318 C   0  0  1  0  0  0  0  0  0  0  0  0
    5.4605   -1.5576   -0.6529 C   0  0  1  0  0  0  0  0  0  0  0  0
    2.9970    1.4038    1.6812 H   0  0  0  0  0  0  0  0  0  0  0  0
    1.4505    1.3583    2.5488 H   0  0  0  0  0  0  0  0  0  0  0  0
    1.5115    0.9262    0.8425 H   0  0  0  0  0  0  0  0  0  0  0  0
    2.6558   -3.0445    2.0131 H   0  0  0  0  0  0  0  0  0  0  0  0
    4.6212   -3.2396    2.8677 H   0  0  0  0  0  0  0  0  0  0  0  0
    5.1689   -0.9462    2.6031 H   0  0  0  0  0  0  0  0  0  0  0  0
    6.5795   -1.9090    2.4858 H   0  0  0  0  0  0  0  0  0  0  0  0
    6.0650    0.0652    0.6260 H   0  0  0  0  0  0  0  0  0  0  0  0
    7.2152   -4.6822   -0.0668 H   0  0  0  0  0  0  0  0  0  0  0  0
    7.5726   -3.4839    1.1589 H   0  0  0  0  0  0  0  0  0  0  0  0
    5.7210   -4.9035    1.9161 H   0  0  0  0  0  0  0  0  0  0  0  0
    5.2046   -5.6855   -0.4522 H   0  0  0  0  0  0  0  0  0  0  0  0
    2.3074   -2.6634   -0.6684 H   0  0  0  0  0  0  0  0  0  0  0  0
    3.7841   -4.2501   -1.8068 H   0  0  0  0  0  0  0  0  0  0  0  0
    5.3523   -2.8517   -2.4098 H   0  0  0  0  0  0  0  0  0  0  0  0
    5.5023   -0.7842   -1.3949 H   0  0  0  0  0  0  0  0  0  0  0  0
  1  2  1  0
  1 21  1  0
  1 22  1  0
  1 23  1  0
  2  3  2  0
  2  4  1  0
  4  5  1  0
  5 17  1  0
  5  6  1  0
  5 24  1  1
  6 12  1  0
  6  7  1  0
  6 25  1  1
  7  8  1  0
  7 26  1  0
  7 27  1  0
  8 20  1  0
  8  9  1  0
  8 28  1  1
 10  9  1  6
 10 19  1  0
 10 20  1  0
 10 11  1  0
 11 12  1  0
 11 29  1  0
 11 30  1  0
 12 13  1  0
 12 31  1  1
 13 18  1  0
 13 14  1  0
 13 32  1  6
 14 15  2  0
 14 16  1  0
 16 17  1  0
 17 18  1  0
 17 33  1  6
 18 19  1  0
 18 34  1  6
 19 20  1  0
 19 35  1  6
 20 36  1  6
M  END
>  <i_m_ct_stereo_status>  (3) 
1

>  <s_m_source_file>  (3) 
/var/tmp/pbs.5076255.sched01/tmpsofmo5yl/0au1p7r3z.sdf

>  <i_m_source_file_index>  (3) 
1

>  <i_lp_mmshare_version>  (3) 
48012

>  <i_f3d_flags>  (3) 
0

>  <s_epik_input>  (3) 
Tz1DMU9bQ0BIXTJbQ0BIXShPQyg9TylbQ0gzXSlbQ0hdKFtDSDJdW0NAQEhdKE8zKVtDQEBIXTQ1KVtDQEhdKFtDSDJdNilbQ0BASF0xW0NAQEhdMltDQEBIXTVbQ0BAXTM0Ng==

>  <s_epik_cmdline>  (3) 
J2VwaWtfcHl0aG9uJywgJy1waHQnLCAnMi4wJywgJy1waCcsICc3LjAnLCAnLXRuJywgJzgnLCAnLW1hJywgJzIwMCcsICctaW1hZScsICc8aW5maWxlLm1hZT4nLCAnLW9tYWUnLCAnPG91dGZpbGUubWFlPic=

>  <r_lp_tautomer_probability>  (3) 
1

>  <r_epik_Ionization_Penalty>  (3) 
1.96513e-11

>  <r_epik_Ionization_Penalty_Charging>  (3) 
0

>  <r_epik_Ionization_Penalty_Neutral>  (3) 
1.96513e-11

>  <r_epik_State_Penalty>  (3) 
-0

>  <r_epik_Charging_Adjusted_Penalty>  (3) 
0

>  <i_epik_Tot_Q>  (3) 
0

>  <i_epik_Tot_abs_Q>  (3) 
0

>  <s_epik_Chemistry_Notes>  (3) 
This compound has an ester and may undergo hydrolysis at high or low pH.

>  <s_lp_Force_Field>  (3) 
OPLS3e

>  <r_lp_Energy>  (3) 
100.521

>  <b_lp_Chiralities_Consistent>  (3) 
1

>  <s_lp_Variant>  (3) 
0:0-1

>  <s_i_glide_gridfile>  (3) 
pfpi4k_grid

>  <i_i_glide_lignum>  (3) 
1

>  <i_i_glide_rotatable_bonds>  (3) 
2

>  <r_i_docking_score>  (3) 
-3.69454

>  <r_i_glide_ligand_efficiency>  (3) 
-0.184727

>  <r_i_glide_ligand_efficiency_sa>  (3) 
-0.501426

>  <r_i_glide_ligand_efficiency_ln>  (3) 
-0.92462

>  <r_i_glide_gscore>  (3) 
-3.69454

>  <r_i_glide_lipo>  (3) 
-0.461324

>  <r_i_glide_hbond>  (3) 
-0.0985667

>  <r_i_glide_metal>  (3) 
-0

>  <r_i_glide_rewards>  (3) 
-1.52533

>  <r_i_glide_evdw>  (3) 
-22.8837

>  <r_i_glide_ecoul>  (3) 
-2.74602

>  <r_i_glide_erotb>  (3) 
0

>  <r_i_glide_esite>  (3) 
-0.0532246

>  <r_i_glide_emodel>  (3) 
-32.6604

>  <r_i_glide_energy>  (3) 
-25.6297

>  <r_i_glide_einternal>  (3) 
0.037825

>  <r_i_glide_intrahb_reward>  (3) 
-0

>  <i_i_glide_confnum>  (3) 
2

>  <i_i_glide_posenum>  (3) 
33

>  <r_i_glide_eff_state_penalty>  (3) 
0

>  <ligand_id>  (3) 
0

>  <original_smiles>  (3) 
CC(=O)OC1C2CC3OC45CC2C2C(=O)OC1C2C4C35

>  <smiles>  (3) 
[H]C([H])([H])C(=O)OC1([H])C2([H])OC(=O)C3([H])C4([H])C([H])([H])C56OC([H])(C([H])([H])C14[H])C5([H])C6([H])C23[H]

$$$$
1:0:0
     RDKit          3D

 57 61  0  0  1  0  0  0  0  0999 V2000
    3.1371   -0.3933   -4.5381 C   0  0  0  0  0  0  0  0  0  0  0  0
    3.6856   -1.1052   -3.3074 C   0  0  0  0  0  0  0  0  0  0  0  0
    4.3889   -0.5527   -2.3432 C   0  0  0  0  0  0  0  0  0  0  0  0
    4.7830   -1.5009   -1.2345 C   0  0  1  0  0  0  0  0  0  0  0  0
    6.0918   -1.4393   -1.0443 F   0  0  0  0  0  0  0  0  0  0  0  0
    4.0050   -1.1293    0.0995 C   0  0  2  0  0  0  0  0  0  0  0  0
    4.8252   -0.2351    1.0316 C   0  0  0  0  0  0  0  0  0  0  0  0
    5.8972   -0.9944    1.8268 C   0  0  1  0  0  0  0  0  0  0  0  0
    6.1119   -0.3234    3.0629 O   0  0  0  0  0  0  0  0  0  0  0  0
    5.6355   -2.5213    1.9950 C   0  0  2  0  0  0  0  0  0  0  0  0
    6.5128   -3.3389    0.9937 C   0  0  0  0  0  0  0  0  0  0  0  0
    7.6938   -3.0272    0.8690 O   0  0  0  0  0  0  0  0  0  0  0  0
    6.0374   -4.5761    0.3429 C   0  0  0  0  0  0  0  0  0  0  0  0
    4.7249   -4.7076    0.1026 C   0  0  0  0  0  0  0  0  0  0  0  0
    3.9568   -5.4269    1.2013 C   0  0  1  0  0  0  0  0  0  0  0  0
    4.4709   -6.8586    1.4874 C   0  0  0  0  0  0  0  0  0  0  0  0
    3.8293   -4.4335    2.4233 C   0  0  1  0  0  0  0  0  0  0  0  0
    4.6141   -4.9515    3.6578 C   0  0  0  0  0  0  0  0  0  0  0  0
    4.1057   -2.8724    2.1310 C   0  0  1  0  0  0  0  0  0  0  0  0
    3.5898   -2.1343    3.4187 C   0  0  0  0  0  0  0  0  0  0  0  0
    3.2874   -2.2392    0.9272 C   0  0  2  0  0  0  0  0  0  0  0  0
    2.6832   -3.2220   -0.0426 C   0  0  0  0  0  0  0  0  0  0  0  0
    3.8061   -3.8758   -0.8171 C   0  0  1  0  0  0  0  0  0  0  0  0
    4.4175   -2.8939   -1.8626 C   0  0  2  0  0  0  0  0  0  0  0  0
    5.6323   -3.4843   -2.6156 C   0  0  0  0  0  0  0  0  0  0  0  0
    3.4174   -2.5514   -3.0400 C   0  0  0  0  0  0  0  0  0  0  0  0
    3.4908   -0.8831   -5.4431 H   0  0  0  0  0  0  0  0  0  0  0  0
    3.4343    0.6528   -4.5616 H   0  0  0  0  0  0  0  0  0  0  0  0
    2.0517   -0.4311   -4.5620 H   0  0  0  0  0  0  0  0  0  0  0  0
    4.6871    0.4862   -2.3333 H   0  0  0  0  0  0  0  0  0  0  0  0
    3.1748   -0.5147   -0.2316 H   0  0  0  0  0  0  0  0  0  0  0  0
    5.3150    0.5452    0.4846 H   0  0  0  0  0  0  0  0  0  0  0  0
    4.1409    0.2765    1.7170 H   0  0  0  0  0  0  0  0  0  0  0  0
    6.8391   -0.8309    1.3020 H   0  0  0  0  0  0  0  0  0  0  0  0
    6.8575    0.2356    2.9507 H   0  0  0  0  0  0  0  0  0  0  0  0
    6.0969   -2.7920    2.9425 H   0  0  0  0  0  0  0  0  0  0  0  0
    6.5025   -5.3609    0.8883 H   0  0  0  0  0  0  0  0  0  0  0  0
    2.9646   -5.6518    0.8271 H   0  0  0  0  0  0  0  0  0  0  0  0
    4.4759   -7.4452    0.5664 H   0  0  0  0  0  0  0  0  0  0  0  0
    3.8122   -7.3687    2.1915 H   0  0  0  0  0  0  0  0  0  0  0  0
    5.4775   -6.8851    1.9041 H   0  0  0  0  0  0  0  0  0  0  0  0
    2.7836   -4.4982    2.7196 H   0  0  0  0  0  0  0  0  0  0  0  0
    5.6892   -5.0003    3.4732 H   0  0  0  0  0  0  0  0  0  0  0  0
    4.2854   -5.9496    3.9465 H   0  0  0  0  0  0  0  0  0  0  0  0
    4.4647   -4.3428    4.5493 H   0  0  0  0  0  0  0  0  0  0  0  0
    2.6121   -2.4946    3.7320 H   0  0  0  0  0  0  0  0  0  0  0  0
    3.4743   -1.0600    3.2701 H   0  0  0  0  0  0  0  0  0  0  0  0
    4.2744   -2.2314    4.2607 H   0  0  0  0  0  0  0  0  0  0  0  0
    2.4177   -1.7474    1.3724 H   0  0  0  0  0  0  0  0  0  0  0  0
    2.0189   -3.9045    0.4706 H   0  0  0  0  0  0  0  0  0  0  0  0
    2.0020   -2.7526   -0.7313 H   0  0  0  0  0  0  0  0  0  0  0  0
    3.3070   -4.6306   -1.3891 H   0  0  0  0  0  0  0  0  0  0  0  0
    5.3812   -4.4797   -2.9916 H   0  0  0  0  0  0  0  0  0  0  0  0
    6.5278   -3.5875   -2.0026 H   0  0  0  0  0  0  0  0  0  0  0  0
    5.9248   -2.8831   -3.4790 H   0  0  0  0  0  0  0  0  0  0  0  0
    2.3657   -2.6663   -2.7897 H   0  0  0  0  0  0  0  0  0  0  0  0
    3.5891   -3.1346   -3.9344 H   0  0  0  0  0  0  0  0  0  0  0  0
  1  2  1  0
  1 27  1  0
  1 28  1  0
  1 29  1  0
  2 26  1  0
  2  3  2  0
  3  4  1  0
  3 30  1  0
  4 24  1  0
  4  5  1  1
  4  6  1  0
  6 21  1  0
  6  7  1  0
  6 31  1  6
  7  8  1  0
  7 32  1  0
  7 33  1  0
  8  9  1  0
  8 10  1  0
  8 34  1  6
  9 35  1  0
 10 19  1  0
 10 11  1  0
 10 36  1  1
 11 12  2  0
 11 13  1  0
 13 14  2  0
 13 37  1  0
 14 23  1  0
 14 15  1  0
 15 16  1  0
 15 17  1  0
 15 38  1  6
 16 39  1  0
 16 40  1  0
 16 41  1  0
 17 18  1  0
 17 19  1  0
 17 42  1  1
 18 43  1  0
 18 44  1  0
 18 45  1  0
 19 20  1  1
 19 21  1  0
 20 46  1  0
 20 47  1  0
 20 48  1  0
 21 22  1  0
 21 49  1  1
 22 23  1  0
 22 50  1  0
 22 51  1  0
 23 24  1  0
 23 52  1  6
 24 25  1  6
 24 26  1  0
 25 53  1  0
 25 54  1  0
 25 55  1  0
 26 56  1  0
 26 57  1  0
M  END
>  <i_m_ct_stereo_status>  (4) 
1

>  <s_m_source_file>  (4) 
/var/tmp/pbs.5076255.sched01/tmpsofmo5yl/0au1p7r3z.sdf

>  <i_m_source_file_index>  (4) 
2

>  <i_lp_mmshare_version>  (4) 
48012

>  <i_f3d_flags>  (4) 
0

>  <s_epik_input>  (4) 
W0NIM11DKD1bQ0hdMSlbQ0gyXVtDQF0yKFtDSDNdKVtDQEhdKFtDSDJdMylDKFtDQEBIXShbQ0gzXSlbQ0BIXTRbQ0gzXSk9W0NIXUMoPU8pW0NAQEhdKFtDQEBIXShbQ0gyXTUpW09IXSlbQ0BAXTQoW0NIM10pW0NIXTNbQ0hdNVtDQF0xMkY=

>  <s_epik_cmdline>  (4) 
J2VwaWtfcHl0aG9uJywgJy1waHQnLCAnMi4wJywgJy1waCcsICc3LjAnLCAnLXRuJywgJzgnLCAnLW1hJywgJzIwMCcsICctaW1hZScsICc8aW5maWxlLm1hZT4nLCAnLW9tYWUnLCAnPG91dGZpbGUubWFlPic=

>  <r_lp_tautomer_probability>  (4) 
1

>  <r_epik_Ionization_Penalty>  (4) 
5.87002e-08

>  <r_epik_Ionization_Penalty_Charging>  (4) 
0

>  <r_epik_Ionization_Penalty_Neutral>  (4) 
5.87002e-08

>  <r_epik_State_Penalty>  (4) 
-0

>  <r_epik_Charging_Adjusted_Penalty>  (4) 
0

>  <i_epik_Tot_Q>  (4) 
0

>  <i_epik_Tot_abs_Q>  (4) 
0

>  <s_lp_Force_Field>  (4) 
OPLS3e

>  <r_lp_Energy>  (4) 
105.505

>  <b_lp_Chiralities_Consistent>  (4) 
1

>  <s_lp_Variant>  (4) 
1:0-1

>  <s_i_glide_gridfile>  (4) 
pfpi4k_grid

>  <i_i_glide_lignum>  (4) 
2

>  <i_i_glide_rotatable_bonds>  (4) 
1

>  <r_i_docking_score>  (4) 
-4.72723

>  <r_i_glide_ligand_efficiency>  (4) 
-0.181816

>  <r_i_glide_ligand_efficiency_sa>  (4) 
-0.53863

>  <r_i_glide_ligand_efficiency_ln>  (4) 
-1.11017

>  <r_i_glide_gscore>  (4) 
-4.72723

>  <r_i_glide_lipo>  (4) 
-1.30218

>  <r_i_glide_hbond>  (4) 
-0.333736

>  <r_i_glide_metal>  (4) 
-0

>  <r_i_glide_rewards>  (4) 
-1.072

>  <r_i_glide_evdw>  (4) 
-24.4647

>  <r_i_glide_ecoul>  (4) 
-4.75179

>  <r_i_glide_erotb>  (4) 
0

>  <r_i_glide_esite>  (4) 
-0.0832982

>  <r_i_glide_emodel>  (4) 
-35.2516

>  <r_i_glide_energy>  (4) 
-29.2165

>  <r_i_glide_einternal>  (4) 
1.1076

>  <r_i_glide_intrahb_reward>  (4) 
-0

>  <i_i_glide_confnum>  (4) 
1

>  <i_i_glide_posenum>  (4) 
39

>  <r_i_glide_eff_state_penalty>  (4) 
0

>  <ligand_id>  (4) 
1

>  <original_smiles>  (4) 
CC1=CC2(F)C3CC(O)C4C(=O)C=C5C(C)C(C)C4(C)C3CC5C2(C)C1

>  <smiles>  (4) 
[H]OC1([H])C([H])([H])C2([H])C3(F)C([H])=C(C([H])([H])[H])C([H])([H])C3(C([H])([H])[H])C3([H])C4=C([H])C(=O)C1([H])C(C([H])([H])[H])(C([H])(C([H])([H])[H])C4([H])C([H])([H])[H])C2([H])C3([H])[H]

$$$$
1:0:1
     RDKit          3D

 57 61  0  0  1  0  0  0  0  0999 V2000
    3.0637   -0.3983   -4.5540 C   0  0  0  0  0  0  0  0  0  0  0  0
    3.5920   -1.0967   -3.3165 C   0  0  0  0  0  0  0  0  0  0  0  0
    4.2879   -0.5342   -2.3471 C   0  0  0  0  0  0  0  0  0  0  0  0
    4.6920   -1.4711   -1.2344 C   0  0  1  0  0  0  0  0  0  0  0  0
    6.0082   -1.3542   -1.0572 F   0  0  0  0  0  0  0  0  0  0  0  0
    3.9199   -1.1043    0.0953 C   0  0  2  0  0  0  0  0  0  0  0  0
    4.7038   -0.1978    1.0358 C   0  0  0  0  0  0  0  0  0  0  0  0
    5.7905   -0.9300    1.8399 C   0  0  1  0  0  0  0  0  0  0  0  0
    5.9496   -0.2853    3.0907 O   0  0  0  0  0  0  0  0  0  0  0  0
    5.5856   -2.4628    1.9743 C   0  0  2  0  0  0  0  0  0  0  0  0
    6.4793   -3.2505    0.9368 C   0  0  0  0  0  0  0  0  0  0  0  0
    7.6097   -2.8393    0.6849 O   0  0  0  0  0  0  0  0  0  0  0  0
    6.0349   -4.5216    0.3768 C   0  0  0  0  0  0  0  0  0  0  0  0
    4.7282   -4.6800    0.1322 C   0  0  0  0  0  0  0  0  0  0  0  0
    3.9615   -5.4038    1.2126 C   0  0  1  0  0  0  0  0  0  0  0  0
    4.5163   -6.8178    1.4915 C   0  0  0  0  0  0  0  0  0  0  0  0
    3.8076   -4.4126    2.4268 C   0  0  1  0  0  0  0  0  0  0  0  0
    4.6079   -4.9079    3.6600 C   0  0  0  0  0  0  0  0  0  0  0  0
    4.0597   -2.8478    2.1328 C   0  0  1  0  0  0  0  0  0  0  0  0
    3.5194   -2.1238    3.4125 C   0  0  0  0  0  0  0  0  0  0  0  0
    3.2263   -2.2213    0.9405 C   0  0  2  0  0  0  0  0  0  0  0  0
    2.6494   -3.1982   -0.0340 C   0  0  0  0  0  0  0  0  0  0  0  0
    3.7870   -3.8532   -0.7813 C   0  0  1  0  0  0  0  0  0  0  0  0
    4.3750   -2.8756   -1.8593 C   0  0  2  0  0  0  0  0  0  0  0  0
    5.5967   -3.4563   -2.6032 C   0  0  0  0  0  0  0  0  0  0  0  0
    3.3680   -2.5612   -3.0416 C   0  0  0  0  0  0  0  0  0  0  0  0
    3.4700   -0.8652   -5.4475 H   0  0  0  0  0  0  0  0  0  0  0  0
    3.3310    0.6618   -4.5577 H   0  0  0  0  0  0  0  0  0  0  0  0
    1.9797   -0.4633   -4.6317 H   0  0  0  0  0  0  0  0  0  0  0  0
    4.5340    0.5186   -2.3415 H   0  0  0  0  0  0  0  0  0  0  0  0
    3.0627   -0.5253   -0.2469 H   0  0  0  0  0  0  0  0  0  0  0  0
    5.1801    0.6034    0.4778 H   0  0  0  0  0  0  0  0  0  0  0  0
    3.9999    0.2984    1.7047 H   0  0  0  0  0  0  0  0  0  0  0  0
    6.7281   -0.7315    1.3203 H   0  0  0  0  0  0  0  0  0  0  0  0
    5.1453   -0.3760    3.6047 H   0  0  0  0  0  0  0  0  0  0  0  0
    6.0523   -2.7324    2.9142 H   0  0  0  0  0  0  0  0  0  0  0  0
    6.5325   -5.3100    0.9194 H   0  0  0  0  0  0  0  0  0  0  0  0
    2.9764   -5.6390    0.8237 H   0  0  0  0  0  0  0  0  0  0  0  0
    4.5390   -7.3953    0.5667 H   0  0  0  0  0  0  0  0  0  0  0  0
    3.8695   -7.3429    2.1880 H   0  0  0  0  0  0  0  0  0  0  0  0
    5.5208   -6.8203    1.9116 H   0  0  0  0  0  0  0  0  0  0  0  0
    2.7607   -4.4950    2.7200 H   0  0  0  0  0  0  0  0  0  0  0  0
    5.6836   -4.9307    3.4724 H   0  0  0  0  0  0  0  0  0  0  0  0
    4.3024   -5.9135    3.9433 H   0  0  0  0  0  0  0  0  0  0  0  0
    4.4427   -4.3054    4.5502 H   0  0  0  0  0  0  0  0  0  0  0  0
    2.5484   -2.5147    3.7157 H   0  0  0  0  0  0  0  0  0  0  0  0
    3.3652   -1.0588    3.2598 H   0  0  0  0  0  0  0  0  0  0  0  0
    4.1995   -2.2107    4.2570 H   0  0  0  0  0  0  0  0  0  0  0  0
    2.3476   -1.7484    1.3816 H   0  0  0  0  0  0  0  0  0  0  0  0
    1.9810   -3.8965    0.4553 H   0  0  0  0  0  0  0  0  0  0  0  0
    1.9950   -2.6760   -0.7267 H   0  0  0  0  0  0  0  0  0  0  0  0
    3.2810   -4.6603   -1.2734 H   0  0  0  0  0  0  0  0  0  0  0  0
    5.3683   -4.4481   -2.9850 H   0  0  0  0  0  0  0  0  0  0  0  0
    6.4965   -3.5230   -1.9937 H   0  0  0  0  0  0  0  0  0  0  0  0
    5.8722   -2.8382   -3.4628 H   0  0  0  0  0  0  0  0  0  0  0  0
    2.3185   -2.6895   -2.7974 H   0  0  0  0  0  0  0  0  0  0  0  0
    3.5587   -3.1330   -3.9441 H   0  0  0  0  0  0  0  0  0  0  0  0
  1  2  1  0
  1 27  1  0
  1 28  1  0
  1 29  1  0
  2 26  1  0
  2  3  2  0
  3  4  1  0
  3 30  1  0
  4 24  1  0
  4  5  1  1
  4  6  1  0
  6 21  1  0
  6  7  1  0
  6 31  1  6
  7  8  1  0
  7 32  1  0
  7 33  1  0
  8  9  1  0
  8 10  1  0
  8 34  1  6
  9 35  1  0
 10 19  1  0
 10 11  1  0
 10 36  1  1
 11 12  2  0
 11 13  1  0
 13 14  2  0
 13 37  1  0
 14 23  1  0
 14 15  1  0
 15 16  1  0
 15 17  1  0
 15 38  1  6
 16 39  1  0
 16 40  1  0
 16 41  1  0
 17 18  1  0
 17 19  1  0
 17 42  1  1
 18 43  1  0
 18 44  1  0
 18 45  1  0
 19 20  1  1
 19 21  1  0
 20 46  1  0
 20 47  1  0
 20 48  1  0
 21 22  1  0
 21 49  1  1
 22 23  1  0
 22 50  1  0
 22 51  1  0
 23 24  1  0
 23 52  1  6
 24 25  1  6
 24 26  1  0
 25 53  1  0
 25 54  1  0
 25 55  1  0
 26 56  1  0
 26 57  1  0
M  END
>  <i_m_ct_stereo_status>  (5) 
1

>  <s_m_source_file>  (5) 
/var/tmp/pbs.5076255.sched01/tmpsofmo5yl/0au1p7r3z.sdf

>  <i_m_source_file_index>  (5) 
2

>  <i_lp_mmshare_version>  (5) 
48012

>  <i_f3d_flags>  (5) 
0

>  <s_epik_input>  (5) 
W0NIM11DKD1bQ0hdMSlbQ0gyXVtDQF0yKFtDSDNdKVtDQEhdKFtDSDJdMylDKFtDQEBIXShbQ0gzXSlbQ0BIXTRbQ0gzXSk9W0NIXUMoPU8pW0NAQEhdKFtDQEBIXShbQ0gyXTUpW09IXSlbQ0BAXTQoW0NIM10pW0NIXTNbQ0hdNVtDQF0xMkY=

>  <s_epik_cmdline>  (5) 
J2VwaWtfcHl0aG9uJywgJy1waHQnLCAnMi4wJywgJy1waCcsICc3LjAnLCAnLXRuJywgJzgnLCAnLW1hJywgJzIwMCcsICctaW1hZScsICc8aW5maWxlLm1hZT4nLCAnLW9tYWUnLCAnPG91dGZpbGUubWFlPic=

>  <r_lp_tautomer_probability>  (5) 
1

>  <r_epik_Ionization_Penalty>  (5) 
5.87002e-08

>  <r_epik_Ionization_Penalty_Charging>  (5) 
0

>  <r_epik_Ionization_Penalty_Neutral>  (5) 
5.87002e-08

>  <r_epik_State_Penalty>  (5) 
-0

>  <r_epik_Charging_Adjusted_Penalty>  (5) 
0

>  <i_epik_Tot_Q>  (5) 
0

>  <i_epik_Tot_abs_Q>  (5) 
0

>  <s_lp_Force_Field>  (5) 
OPLS3e

>  <r_lp_Energy>  (5) 
105.505

>  <b_lp_Chiralities_Consistent>  (5) 
1

>  <s_lp_Variant>  (5) 
1:0-1

>  <s_i_glide_gridfile>  (5) 
pfpi4k_grid

>  <i_i_glide_lignum>  (5) 
2

>  <i_i_glide_rotatable_bonds>  (5) 
1

>  <r_i_docking_score>  (5) 
-4.26667

>  <r_i_glide_ligand_efficiency>  (5) 
-0.164103

>  <r_i_glide_ligand_efficiency_sa>  (5) 
-0.486154

>  <r_i_glide_ligand_efficiency_ln>  (5) 
-1.00201

>  <r_i_glide_gscore>  (5) 
-4.26667

>  <r_i_glide_lipo>  (5) 
-1.31353

>  <r_i_glide_hbond>  (5) 
-0.0342034

>  <r_i_glide_metal>  (5) 
-0

>  <r_i_glide_rewards>  (5) 
-1.07492

>  <r_i_glide_evdw>  (5) 
-26.0913

>  <r_i_glide_ecoul>  (5) 
-3.03562

>  <r_i_glide_erotb>  (5) 
0

>  <r_i_glide_esite>  (5) 
-0.0841126

>  <r_i_glide_emodel>  (5) 
-35.2921

>  <r_i_glide_energy>  (5) 
-29.1269

>  <r_i_glide_einternal>  (5) 
0.00259524

>  <r_i_glide_intrahb_reward>  (5) 
-0

>  <i_i_glide_confnum>  (5) 
1

>  <i_i_glide_posenum>  (5) 
29

>  <r_i_glide_eff_state_penalty>  (5) 
0

>  <ligand_id>  (5) 
1

>  <original_smiles>  (5) 
CC1=CC2(F)C3CC(O)C4C(=O)C=C5C(C)C(C)C4(C)C3CC5C2(C)C1

>  <smiles>  (5) 
[H]OC1([H])C([H])([H])C2([H])C3(F)C([H])=C(C([H])([H])[H])C([H])([H])C3(C([H])([H])[H])C3([H])C4=C([H])C(=O)C1([H])C(C([H])([H])[H])(C([H])(C([H])([H])[H])C4([H])C([H])([H])[H])C2([H])C3([H])[H]

$$$$
1:0:2
     RDKit          3D

 57 61  0  0  1  0  0  0  0  0999 V2000
    3.0544   -0.3926   -4.5452 C   0  0  0  0  0  0  0  0  0  0  0  0
    3.5948   -1.0850   -3.3127 C   0  0  0  0  0  0  0  0  0  0  0  0
    4.3067   -0.5246   -2.3374 C   0  0  0  0  0  0  0  0  0  0  0  0
    4.6942   -1.4722   -1.2296 C   0  0  1  0  0  0  0  0  0  0  0  0
    6.0121   -1.3635   -1.0403 F   0  0  0  0  0  0  0  0  0  0  0  0
    3.9230   -1.1032    0.1006 C   0  0  2  0  0  0  0  0  0  0  0  0
    4.7157   -0.1926    1.0431 C   0  0  0  0  0  0  0  0  0  0  0  0
    5.8085   -0.9294    1.8333 C   0  0  1  0  0  0  0  0  0  0  0  0
    5.9799   -0.2816    3.0789 O   0  0  0  0  0  0  0  0  0  0  0  0
    5.5783   -2.4630    1.9877 C   0  0  2  0  0  0  0  0  0  0  0  0
    6.4596   -3.2657    0.9786 C   0  0  0  0  0  0  0  0  0  0  0  0
    7.6280   -2.9026    0.8468 O   0  0  0  0  0  0  0  0  0  0  0  0
    6.0044   -4.5040    0.3540 C   0  0  0  0  0  0  0  0  0  0  0  0
    4.6935   -4.6873    0.1028 C   0  0  0  0  0  0  0  0  0  0  0  0
    3.9428   -5.4016    1.2076 C   0  0  1  0  0  0  0  0  0  0  0  0
    4.4893   -6.8184    1.4953 C   0  0  0  0  0  0  0  0  0  0  0  0
    3.8018   -4.4096    2.4242 C   0  0  1  0  0  0  0  0  0  0  0  0
    4.5935   -4.9086    3.6660 C   0  0  0  0  0  0  0  0  0  0  0  0
    4.0497   -2.8444    2.1397 C   0  0  1  0  0  0  0  0  0  0  0  0
    3.5194   -2.1110    3.4177 C   0  0  0  0  0  0  0  0  0  0  0  0
    3.2274   -2.2260    0.9326 C   0  0  2  0  0  0  0  0  0  0  0  0
    2.6300   -3.2019   -0.0478 C   0  0  0  0  0  0  0  0  0  0  0  0
    3.7671   -3.8597   -0.8298 C   0  0  1  0  0  0  0  0  0  0  0  0
    4.3729   -2.8628   -1.8683 C   0  0  2  0  0  0  0  0  0  0  0  0
    5.6006   -3.4588   -2.6078 C   0  0  0  0  0  0  0  0  0  0  0  0
    3.3672   -2.5443   -3.0343 C   0  0  0  0  0  0  0  0  0  0  0  0
    3.4427   -0.8693   -5.4429 H   0  0  0  0  0  0  0  0  0  0  0  0
    3.3263    0.6667   -4.5637 H   0  0  0  0  0  0  0  0  0  0  0  0
    1.9687   -0.4518   -4.6014 H   0  0  0  0  0  0  0  0  0  0  0  0
    4.5777    0.5187   -2.3196 H   0  0  0  0  0  0  0  0  0  0  0  0
    3.0744   -0.5050   -0.2310 H   0  0  0  0  0  0  0  0  0  0  0  0
    5.1826    0.6062    0.4826 H   0  0  0  0  0  0  0  0  0  0  0  0
    4.0239    0.3074    1.7223 H   0  0  0  0  0  0  0  0  0  0  0  0
    6.7390   -0.7380    1.3046 H   0  0  0  0  0  0  0  0  0  0  0  0
    6.9048   -0.3371    3.3052 H   0  0  0  0  0  0  0  0  0  0  0  0
    6.0405   -2.7303    2.9337 H   0  0  0  0  0  0  0  0  0  0  0  0
    6.4953   -5.2992    0.9085 H   0  0  0  0  0  0  0  0  0  0  0  0
    2.9508   -5.6382    0.8319 H   0  0  0  0  0  0  0  0  0  0  0  0
    4.5062   -7.4105    0.5779 H   0  0  0  0  0  0  0  0  0  0  0  0
    3.8426   -7.3409    2.1994 H   0  0  0  0  0  0  0  0  0  0  0  0
    5.4953   -6.8275    1.9143 H   0  0  0  0  0  0  0  0  0  0  0  0
    2.7546   -4.4894    2.7219 H   0  0  0  0  0  0  0  0  0  0  0  0
    5.6688   -4.9385    3.4833 H   0  0  0  0  0  0  0  0  0  0  0  0
    4.2820   -5.9125    3.9552 H   0  0  0  0  0  0  0  0  0  0  0  0
    4.4302   -4.3021    4.5548 H   0  0  0  0  0  0  0  0  0  0  0  0
    2.5462   -2.4913    3.7300 H   0  0  0  0  0  0  0  0  0  0  0  0
    3.3809   -1.0441    3.2681 H   0  0  0  0  0  0  0  0  0  0  0  0
    4.1999   -2.1931    4.2639 H   0  0  0  0  0  0  0  0  0  0  0  0
    2.3524   -1.7488    1.3778 H   0  0  0  0  0  0  0  0  0  0  0  0
    1.9640   -3.8952    0.4502 H   0  0  0  0  0  0  0  0  0  0  0  0
    1.9678   -2.6628   -0.7127 H   0  0  0  0  0  0  0  0  0  0  0  0
    3.2874   -4.5974   -1.4572 H   0  0  0  0  0  0  0  0  0  0  0  0
    5.3837   -4.4540   -2.9862 H   0  0  0  0  0  0  0  0  0  0  0  0
    6.4972   -3.5183   -1.9922 H   0  0  0  0  0  0  0  0  0  0  0  0
    5.8768   -2.8409   -3.4659 H   0  0  0  0  0  0  0  0  0  0  0  0
    2.3155   -2.6743   -2.7872 H   0  0  0  0  0  0  0  0  0  0  0  0
    3.5468   -3.1273   -3.9373 H   0  0  0  0  0  0  0  0  0  0  0  0
  1  2  1  0
  1 27  1  0
  1 28  1  0
  1 29  1  0
  2 26  1  0
  2  3  2  0
  3  4  1  0
  3 30  1  0
  4 24  1  0
  4  5  1  1
  4  6  1  0
  6 21  1  0
  6  7  1  0
  6 31  1  6
  7  8  1  0
  7 32  1  0
  7 33  1  0
  8  9  1  0
  8 10  1  0
  8 34  1  6
  9 35  1  0
 10 19  1  0
 10 11  1  0
 10 36  1  1
 11 12  2  0
 11 13  1  0
 13 14  2  0
 13 37  1  0
 14 23  1  0
 14 15  1  0
 15 16  1  0
 15 17  1  0
 15 38  1  6
 16 39  1  0
 16 40  1  0
 16 41  1  0
 17 18  1  0
 17 19  1  0
 17 42  1  1
 18 43  1  0
 18 44  1  0
 18 45  1  0
 19 20  1  1
 19 21  1  0
 20 46  1  0
 20 47  1  0
 20 48  1  0
 21 22  1  0
 21 49  1  1
 22 23  1  0
 22 50  1  0
 22 51  1  0
 23 24  1  0
 23 52  1  6
 24 25  1  6
 24 26  1  0
 25 53  1  0
 25 54  1  0
 25 55  1  0
 26 56  1  0
 26 57  1  0
M  END
>  <i_m_ct_stereo_status>  (6) 
1

>  <s_m_source_file>  (6) 
/var/tmp/pbs.5076255.sched01/tmpsofmo5yl/0au1p7r3z.sdf

>  <i_m_source_file_index>  (6) 
2

>  <i_lp_mmshare_version>  (6) 
48012

>  <i_f3d_flags>  (6) 
0

>  <s_epik_input>  (6) 
W0NIM11DKD1bQ0hdMSlbQ0gyXVtDQF0yKFtDSDNdKVtDQEhdKFtDSDJdMylDKFtDQEBIXShbQ0gzXSlbQ0BIXTRbQ0gzXSk9W0NIXUMoPU8pW0NAQEhdKFtDQEBIXShbQ0gyXTUpW09IXSlbQ0BAXTQoW0NIM10pW0NIXTNbQ0hdNVtDQF0xMkY=

>  <s_epik_cmdline>  (6) 
J2VwaWtfcHl0aG9uJywgJy1waHQnLCAnMi4wJywgJy1waCcsICc3LjAnLCAnLXRuJywgJzgnLCAnLW1hJywgJzIwMCcsICctaW1hZScsICc8aW5maWxlLm1hZT4nLCAnLW9tYWUnLCAnPG91dGZpbGUubWFlPic=

>  <r_lp_tautomer_probability>  (6) 
1

>  <r_epik_Ionization_Penalty>  (6) 
5.87002e-08

>  <r_epik_Ionization_Penalty_Charging>  (6) 
0

>  <r_epik_Ionization_Penalty_Neutral>  (6) 
5.87002e-08

>  <r_epik_State_Penalty>  (6) 
-0

>  <r_epik_Charging_Adjusted_Penalty>  (6) 
0

>  <i_epik_Tot_Q>  (6) 
0

>  <i_epik_Tot_abs_Q>  (6) 
0

>  <s_lp_Force_Field>  (6) 
OPLS3e

>  <r_lp_Energy>  (6) 
105.505

>  <b_lp_Chiralities_Consistent>  (6) 
1

>  <s_lp_Variant>  (6) 
1:0-1

>  <s_i_glide_gridfile>  (6) 
pfpi4k_grid

>  <i_i_glide_lignum>  (6) 
2

>  <i_i_glide_rotatable_bonds>  (6) 
1

>  <r_i_docking_score>  (6) 
-4.20252

>  <r_i_glide_ligand_efficiency>  (6) 
-0.161635

>  <r_i_glide_ligand_efficiency_sa>  (6) 
-0.478844

>  <r_i_glide_ligand_efficiency_ln>  (6) 
-0.986948

>  <r_i_glide_gscore>  (6) 
-4.20252

>  <r_i_glide_lipo>  (6) 
-1.29409

>  <r_i_glide_hbond>  (6) 
-0.0398538

>  <r_i_glide_metal>  (6) 
-0

>  <r_i_glide_rewards>  (6) 
-1.07402

>  <r_i_glide_evdw>  (6) 
-23.8578

>  <r_i_glide_ecoul>  (6) 
-3.45552

>  <r_i_glide_erotb>  (6) 
0

>  <r_i_glide_esite>  (6) 
-0.0833437

>  <r_i_glide_emodel>  (6) 
-32.7651

>  <r_i_glide_energy>  (6) 
-27.3133

>  <r_i_glide_einternal>  (6) 
0.808791

>  <r_i_glide_intrahb_reward>  (6) 
-0

>  <i_i_glide_confnum>  (6) 
2

>  <i_i_glide_posenum>  (6) 
24

>  <r_i_glide_eff_state_penalty>  (6) 
0

>  <ligand_id>  (6) 
1

>  <original_smiles>  (6) 
CC1=CC2(F)C3CC(O)C4C(=O)C=C5C(C)C(C)C4(C)C3CC5C2(C)C1

>  <smiles>  (6) 
[H]OC1([H])C([H])([H])C2([H])C3(F)C([H])=C(C([H])([H])[H])C([H])([H])C3(C([H])([H])[H])C3([H])C4=C([H])C(=O)C1([H])C(C([H])([H])[H])(C([H])(C([H])([H])[H])C4([H])C([H])([H])[H])C2([H])C3([H])[H]

$$$$
2:0:0
     RDKit          3D

 63 69  0  0  1  0  0  0  0  0999 V2000
   -0.5957   -5.9477    5.4615 C   0  0  0  0  0  0  0  0  0  0  0  0
    0.5094   -6.4761    6.4016 C   0  0  0  0  0  0  0  0  0  0  0  0
    1.6302   -7.3778    5.7715 C   0  0  2  0  0  0  0  0  0  0  0  0
    2.5644   -6.5448    4.8856 C   0  0  0  0  0  0  0  0  0  0  0  0
    2.3199   -5.3588    4.6435 O   0  0  0  0  0  0  0  0  0  0  0  0
    3.8861   -7.1917    4.4062 C   0  0  2  0  0  0  0  0  0  0  0  0
    4.8808   -6.5892    5.2357 O   0  0  0  0  0  0  0  0  0  0  0  0
    4.1512   -6.6807    2.9468 C   0  0  0  0  0  0  0  0  0  0  0  0
    5.4251   -6.2638    2.7037 N   0  0  0  0  0  0  0  0  0  0  0  0
    5.7127   -5.6222    1.5547 C   0  0  0  0  0  0  0  0  0  0  0  0
    4.7542   -5.3496    0.5675 C   0  0  0  0  0  0  0  0  0  0  0  0
    3.4441   -5.8045    0.7738 C   0  0  0  0  0  0  0  0  0  0  0  0
    3.1365   -6.5131    1.9516 C   0  0  0  0  0  0  0  0  0  0  0  0
    1.7868   -7.1061    2.0640 C   0  0  0  0  0  0  0  0  0  0  0  0
    0.7383   -6.4931    1.8515 O   0  0  0  0  0  0  0  0  0  0  0  0
    1.8029   -8.6140    2.3193 C   0  0  1  0  0  0  0  0  0  0  0  0
    2.9981   -9.3184    1.5679 C   0  0  0  0  0  0  0  0  0  0  0  0
    4.3086   -9.5894    2.3283 C   0  0  0  0  0  0  0  0  0  0  0  0
    4.0341   -9.9737    3.7754 C   0  0  2  0  0  0  0  0  0  0  0  0
    5.1404  -10.7835    4.1586 O   0  0  0  0  0  0  0  0  0  0  0  0
    4.6720  -11.8079    4.9759 C   0  0  0  0  0  0  0  0  0  0  0  0
    3.3428  -12.0615    4.6858 O   0  0  0  0  0  0  0  0  0  0  0  0
    2.9764  -11.1321    3.6869 C   0  0  1  0  0  0  0  0  0  0  0  0
    1.4535  -10.7971    3.4941 C   0  0  1  0  0  0  0  0  0  0  0  0
    0.6180  -11.6995    4.1938 O   0  0  0  0  0  0  0  0  0  0  0  0
    1.0375   -9.2844    3.5875 C   0  0  2  0  0  0  0  0  0  0  0  0
   -0.4580   -9.2098    3.1176 C   0  0  0  0  0  0  0  0  0  0  0  0
    1.1167   -8.8034    5.1786 C   0  0  2  0  0  0  0  0  0  0  0  0
   -0.1698   -9.0445    5.7457 O   0  0  0  0  0  0  0  0  0  0  0  0
    1.9525   -9.7546    6.0806 C   0  0  0  0  0  0  0  0  0  0  0  0
    3.2776   -9.0473    6.2319 C   0  0  1  0  0  0  0  0  0  0  0  0
    4.0023   -8.7549    4.8362 C   0  0  2  0  0  0  0  0  0  0  0  0
    2.6150   -7.8252    6.8936 C   0  0  1  0  0  0  0  0  0  0  0  0
    3.5304   -6.9148    7.4780 O   0  0  0  0  0  0  0  0  0  0  0  0
   -1.3419   -5.4082    6.0426 H   0  0  0  0  0  0  0  0  0  0  0  0
   -1.1151   -6.7552    4.9523 H   0  0  0  0  0  0  0  0  0  0  0  0
   -0.2160   -5.2671    4.7014 H   0  0  0  0  0  0  0  0  0  0  0  0
    0.9798   -5.6161    6.8825 H   0  0  0  0  0  0  0  0  0  0  0  0
    0.0226   -6.9939    7.2300 H   0  0  0  0  0  0  0  0  0  0  0  0
    4.6200   -6.7339    6.1451 H   0  0  0  0  0  0  0  0  0  0  0  0
    6.7393   -5.3106    1.4340 H   0  0  0  0  0  0  0  0  0  0  0  0
    5.0276   -4.8194   -0.3361 H   0  0  0  0  0  0  0  0  0  0  0  0
    2.6987   -5.6455    0.0066 H   0  0  0  0  0  0  0  0  0  0  0  0
    1.1104   -8.8295    1.5151 H   0  0  0  0  0  0  0  0  0  0  0  0
    2.6427  -10.2554    1.1327 H   0  0  0  0  0  0  0  0  0  0  0  0
    3.2799   -8.7712    0.6715 H   0  0  0  0  0  0  0  0  0  0  0  0
    4.7900  -10.4296    1.8232 H   0  0  0  0  0  0  0  0  0  0  0  0
    5.0604   -8.8162    2.2344 H   0  0  0  0  0  0  0  0  0  0  0  0
    5.2707  -12.7091    4.8263 H   0  0  0  0  0  0  0  0  0  0  0  0
    4.7340  -11.5026    6.0181 H   0  0  0  0  0  0  0  0  0  0  0  0
    3.2386  -11.7344    2.8146 H   0  0  0  0  0  0  0  0  0  0  0  0
    1.2077  -11.1122    2.4817 H   0  0  0  0  0  0  0  0  0  0  0  0
    0.8622  -11.6911    5.1146 H   0  0  0  0  0  0  0  0  0  0  0  0
   -1.1227   -9.8541    3.6772 H   0  0  0  0  0  0  0  0  0  0  0  0
   -0.6136   -9.5653    2.0984 H   0  0  0  0  0  0  0  0  0  0  0  0
   -0.8499   -8.1944    3.1723 H   0  0  0  0  0  0  0  0  0  0  0  0
   -0.5108   -9.8747    5.4250 H   0  0  0  0  0  0  0  0  0  0  0  0
    1.4878   -9.8762    7.0634 H   0  0  0  0  0  0  0  0  0  0  0  0
    2.0129  -10.8054    5.9025 H   0  0  0  0  0  0  0  0  0  0  0  0
    3.9233   -9.5784    6.9358 H   0  0  0  0  0  0  0  0  0  0  0  0
    5.0504   -8.8003    5.1368 H   0  0  0  0  0  0  0  0  0  0  0  0
    2.0415   -8.0912    7.7875 H   0  0  0  0  0  0  0  0  0  0  0  0
    3.9331   -7.3493    8.2191 H   0  0  0  0  0  0  0  0  0  0  0  0
  1  2  1  0
  1 35  1  0
  1 36  1  0
  1 37  1  0
  3  2  1  1
  2 38  1  0
  2 39  1  0
  3 28  1  0
  3 33  1  0
  3  4  1  0
  4  5  2  0
  4  6  1  0
  6 32  1  0
  6  7  1  1
  6  8  1  0
  7 40  1  0
  8 13  2  0
  8  9  1  0
  9 10  2  0
 10 11  1  0
 10 41  1  0
 11 12  2  0
 11 42  1  0
 12 13  1  0
 12 43  1  0
 13 14  1  0
 14 15  2  0
 14 16  1  0
 16 26  1  0
 16 17  1  0
 16 44  1  6
 17 18  1  0
 17 45  1  0
 17 46  1  0
 18 19  1  0
 18 47  1  0
 18 48  1  0
 19 23  1  0
 19 32  1  0
 19 20  1  1
 20 21  1  0
 21 22  1  0
 21 49  1  0
 21 50  1  0
 22 23  1  0
 23 24  1  0
 23 51  1  6
 24 25  1  0
 24 26  1  0
 24 52  1  6
 25 53  1  0
 26 27  1  6
 26 28  1  0
 27 54  1  0
 27 55  1  0
 27 56  1  0
 28 29  1  1
 28 30  1  0
 29 57  1  0
 30 31  1  0
 30 58  1  0
 30 59  1  0
 31 32  1  0
 31 33  1  0
 31 60  1  1
 32 61  1  1
 33 34  1  0
 33 62  1  1
 34 63  1  0
M  END
>  <i_m_ct_stereo_status>  (7) 
1

>  <s_m_source_file>  (7) 
/var/tmp/pbs.5076255.sched01/tmpsofmo5yl/0au1p7r3z.sdf

>  <i_m_source_file_index>  (7) 
3

>  <i_lp_mmshare_version>  (7) 
48012

>  <i_f3d_flags>  (7) 
0

>  <s_epik_input>  (7) 
W0NIM11bQ0gyXVtDQEBdKEMxPU8pKFtDQEBIXTJbT0hdKVtDQF0zKFtPSF0pW0NIMl1bQ0BIXTJbQ0BASF00W0NAQF0xKFtPSF0pYyhuW2NIXVtjSF1bY0hdNSljNUMoPU8pW0NIXShbQ0gyXVtDSDJdNilbQ0BAXTMoW0NIM10pW0NASF0oW09IXSlbQ0BASF0oW0NAXTQ2NylPW0NIMl1PNw==

>  <s_epik_cmdline>  (7) 
J2VwaWtfcHl0aG9uJywgJy1waHQnLCAnMi4wJywgJy1waCcsICc3LjAnLCAnLXRuJywgJzgnLCAnLW1hJywgJzIwMCcsICctaW1hZScsICc8aW5maWxlLm1hZT4nLCAnLW9tYWUnLCAnPG91dGZpbGUubWFlPic=

>  <r_lp_tautomer_probability>  (7) 
1

>  <r_epik_Ionization_Penalty>  (7) 
6.66799e-06

>  <r_epik_Ionization_Penalty_Charging>  (7) 
0

>  <r_epik_Ionization_Penalty_Neutral>  (7) 
6.66799e-06

>  <r_epik_State_Penalty>  (7) 
-0

>  <r_epik_Charging_Adjusted_Penalty>  (7) 
0

>  <i_epik_Tot_Q>  (7) 
0

>  <i_epik_Tot_abs_Q>  (7) 
0

>  <s_epik_Chemistry_Notes>  (7) 
This compound contains an acetal/aminal-like group ( X-CH(R)-Y where X, Y are N, S, or O) that may be acid/base labile, releasing an aldehyde.

>  <s_lp_Force_Field>  (7) 
OPLS3e

>  <r_lp_Energy>  (7) 
184.061

>  <b_lp_Chiralities_Consistent>  (7) 
1

>  <s_lp_Variant>  (7) 
2:0-1

>  <s_i_glide_gridfile>  (7) 
pfpi4k_grid

>  <i_i_glide_lignum>  (7) 
3

>  <i_i_glide_rotatable_bonds>  (7) 
5

>  <r_i_docking_score>  (7) 
-3.18558

>  <r_i_glide_ligand_efficiency>  (7) 
-0.0936937

>  <r_i_glide_ligand_efficiency_sa>  (7) 
-0.303531

>  <r_i_glide_ligand_efficiency_ln>  (7) 
-0.703785

>  <r_i_glide_gscore>  (7) 
-3.18558

>  <r_i_glide_lipo>  (7) 
-0.299515

>  <r_i_glide_hbond>  (7) 
-0.0503602

>  <r_i_glide_metal>  (7) 
-0

>  <r_i_glide_rewards>  (7) 
-0.69432

>  <r_i_glide_evdw>  (7) 
-25.8458

>  <r_i_glide_ecoul>  (7) 
-5.36858

>  <r_i_glide_erotb>  (7) 
0

>  <r_i_glide_esite>  (7) 
-0.0438127

>  <r_i_glide_emodel>  (7) 
-42.2556

>  <r_i_glide_energy>  (7) 
-31.2143

>  <r_i_glide_einternal>  (7) 
1.51027

>  <r_i_glide_intrahb_reward>  (7) 
-0.5

>  <i_i_glide_confnum>  (7) 
1

>  <i_i_glide_posenum>  (7) 
40

>  <r_i_glide_eff_state_penalty>  (7) 
0

>  <ligand_id>  (7) 
2

>  <original_smiles>  (7) 
CCC12C(=O)C3(O)c4ncccc4C(=O)C4CCC56OCOC5C(O)C4(C)C1(O)CC(C36)C2O

>  <smiles>  (7) 
[H]OC12C(=O)C3(C([H])([H])C([H])([H])[H])C([H])(O[H])C4([H])C([H])([H])C3(O[H])C3(C([H])([H])[H])C([H])(O[H])C5([H])OC([H])([H])OC5(C([H])([H])C([H])([H])C3([H])C(=O)c3c1nc([H])c([H])c3[H])C24[H]

$$$$
2:0:1
     RDKit          3D

 63 69  0  0  1  0  0  0  0  0999 V2000
    1.3746   -5.4441    6.4699 C   0  0  0  0  0  0  0  0  0  0  0  0
    1.4726   -5.0004    4.9870 C   0  0  0  0  0  0  0  0  0  0  0  0
    2.8902   -4.9199    4.2884 C   0  0  2  0  0  0  0  0  0  0  0  0
    2.8548   -3.8791    3.1537 C   0  0  0  0  0  0  0  0  0  0  0  0
    1.8006   -3.3258    2.8375 O   0  0  0  0  0  0  0  0  0  0  0  0
    4.1934   -3.4576    2.4889 C   0  0  2  0  0  0  0  0  0  0  0  0
    4.4795   -2.1830    3.0670 O   0  0  0  0  0  0  0  0  0  0  0  0
    3.9172   -3.1983    0.9642 C   0  0  0  0  0  0  0  0  0  0  0  0
    4.4784   -2.0636    0.4506 N   0  0  0  0  0  0  0  0  0  0  0  0
    4.1408   -1.6495   -0.7865 C   0  0  0  0  0  0  0  0  0  0  0  0
    3.2421   -2.3399   -1.6104 C   0  0  0  0  0  0  0  0  0  0  0  0
    2.6700   -3.5217   -1.1144 C   0  0  0  0  0  0  0  0  0  0  0  0
    3.0394   -3.9946    0.1593 C   0  0  0  0  0  0  0  0  0  0  0  0
    2.5692   -5.3392    0.5705 C   0  0  0  0  0  0  0  0  0  0  0  0
    1.4139   -5.7493    0.4801 O   0  0  0  0  0  0  0  0  0  0  0  0
    3.6979   -6.2758    0.9695 C   0  0  1  0  0  0  0  0  0  0  0  0
    4.9584   -6.0654    0.0599 C   0  0  0  0  0  0  0  0  0  0  0  0
    6.1057   -5.1916    0.5761 C   0  0  0  0  0  0  0  0  0  0  0  0
    6.2818   -5.3780    2.0728 C   0  0  2  0  0  0  0  0  0  0  0  0
    7.6565   -5.0987    2.2757 O   0  0  0  0  0  0  0  0  0  0  0  0
    8.1313   -5.9373    3.2799 C   0  0  0  0  0  0  0  0  0  0  0  0
    7.3901   -7.1066    3.2874 O   0  0  0  0  0  0  0  0  0  0  0  0
    6.4024   -6.9274    2.2911 C   0  0  1  0  0  0  0  0  0  0  0  0
    5.1074   -7.8195    2.3392 C   0  0  1  0  0  0  0  0  0  0  0  0
    5.2499   -8.8923    3.2529 O   0  0  0  0  0  0  0  0  0  0  0  0
    3.7311   -7.0517    2.3912 C   0  0  2  0  0  0  0  0  0  0  0  0
    2.6208   -8.1524    2.1964 C   0  0  0  0  0  0  0  0  0  0  0  0
    3.5450   -6.3588    3.8926 C   0  0  2  0  0  0  0  0  0  0  0  0
    2.8921   -7.3498    4.6671 O   0  0  0  0  0  0  0  0  0  0  0  0
    4.8617   -6.2419    4.7066 C   0  0  0  0  0  0  0  0  0  0  0  0
    5.2654   -4.7901    4.5448 C   0  0  1  0  0  0  0  0  0  0  0  0
    5.4447   -4.3574    3.0141 C   0  0  2  0  0  0  0  0  0  0  0  0
    3.9775   -4.2901    5.2222 C   0  0  1  0  0  0  0  0  0  0  0  0
    3.9575   -2.9105    5.5444 O   0  0  0  0  0  0  0  0  0  0  0  0
    0.3395   -5.3844    6.8093 H   0  0  0  0  0  0  0  0  0  0  0  0
    1.9424   -4.7966    7.1367 H   0  0  0  0  0  0  0  0  0  0  0  0
    1.6924   -6.4698    6.6401 H   0  0  0  0  0  0  0  0  0  0  0  0
    0.8246   -5.6360    4.3799 H   0  0  0  0  0  0  0  0  0  0  0  0
    0.9797   -4.0277    4.9823 H   0  0  0  0  0  0  0  0  0  0  0  0
    4.4281   -2.2802    4.0163 H   0  0  0  0  0  0  0  0  0  0  0  0
    4.5922   -0.7241   -1.1228 H   0  0  0  0  0  0  0  0  0  0  0  0
    2.9678   -1.9554   -2.5823 H   0  0  0  0  0  0  0  0  0  0  0  0
    1.9872   -4.0812   -1.7378 H   0  0  0  0  0  0  0  0  0  0  0  0
    3.3522   -7.0726    0.3291 H   0  0  0  0  0  0  0  0  0  0  0  0
    5.3421   -7.0485   -0.1781 H   0  0  0  0  0  0  0  0  0  0  0  0
    4.6834   -5.6928   -0.9280 H   0  0  0  0  0  0  0  0  0  0  0  0
    7.0143   -5.5328    0.0747 H   0  0  0  0  0  0  0  0  0  0  0  0
    6.0558   -4.1482    0.2833 H   0  0  0  0  0  0  0  0  0  0  0  0
    9.1893   -6.1503    3.1202 H   0  0  0  0  0  0  0  0  0  0  0  0
    8.0140   -5.4563    4.2509 H   0  0  0  0  0  0  0  0  0  0  0  0
    6.9613   -7.3252    1.4417 H   0  0  0  0  0  0  0  0  0  0  0  0
    5.1033   -8.3963    1.4145 H   0  0  0  0  0  0  0  0  0  0  0  0
    5.2825   -8.5328    4.1294 H   0  0  0  0  0  0  0  0  0  0  0  0
    2.6646   -8.9510    2.9352 H   0  0  0  0  0  0  0  0  0  0  0  0
    2.7055   -8.6975    1.2562 H   0  0  0  0  0  0  0  0  0  0  0  0
    1.6191   -7.7275    2.2408 H   0  0  0  0  0  0  0  0  0  0  0  0
    2.9629   -7.1254    5.5808 H   0  0  0  0  0  0  0  0  0  0  0  0
    4.6929   -6.4696    5.7635 H   0  0  0  0  0  0  0  0  0  0  0  0
    5.6439   -6.9575    4.6029 H   0  0  0  0  0  0  0  0  0  0  0  0
    6.1411   -4.5538    5.1510 H   0  0  0  0  0  0  0  0  0  0  0  0
    6.2110   -3.5871    3.0854 H   0  0  0  0  0  0  0  0  0  0  0  0
    3.9006   -4.6914    6.2337 H   0  0  0  0  0  0  0  0  0  0  0  0
    4.5449   -2.7717    6.2769 H   0  0  0  0  0  0  0  0  0  0  0  0
  1  2  1  0
  1 35  1  0
  1 36  1  0
  1 37  1  0
  3  2  1  1
  2 38  1  0
  2 39  1  0
  3 28  1  0
  3 33  1  0
  3  4  1  0
  4  5  2  0
  4  6  1  0
  6 32  1  0
  6  7  1  1
  6  8  1  0
  7 40  1  0
  8 13  2  0
  8  9  1  0
  9 10  2  0
 10 11  1  0
 10 41  1  0
 11 12  2  0
 11 42  1  0
 12 13  1  0
 12 43  1  0
 13 14  1  0
 14 15  2  0
 14 16  1  0
 16 26  1  0
 16 17  1  0
 16 44  1  6
 17 18  1  0
 17 45  1  0
 17 46  1  0
 18 19  1  0
 18 47  1  0
 18 48  1  0
 19 23  1  0
 19 32  1  0
 19 20  1  6
 20 21  1  0
 21 22  1  0
 21 49  1  0
 21 50  1  0
 22 23  1  0
 23 24  1  0
 23 51  1  6
 24 25  1  0
 24 26  1  0
 24 52  1  6
 25 53  1  0
 26 27  1  6
 26 28  1  0
 27 54  1  0
 27 55  1  0
 27 56  1  0
 28 29  1  1
 28 30  1  0
 29 57  1  0
 30 31  1  0
 30 58  1  0
 30 59  1  0
 31 32  1  0
 31 33  1  0
 31 60  1  1
 32 61  1  1
 33 34  1  0
 33 62  1  1
 34 63  1  0
M  END
>  <i_m_ct_stereo_status>  (8) 
1

>  <s_m_source_file>  (8) 
/var/tmp/pbs.5076255.sched01/tmpsofmo5yl/0au1p7r3z.sdf

>  <i_m_source_file_index>  (8) 
3

>  <i_lp_mmshare_version>  (8) 
48012

>  <i_f3d_flags>  (8) 
0

>  <s_epik_input>  (8) 
W0NIM11bQ0gyXVtDQEBdKEMxPU8pKFtDQEBIXTJbT0hdKVtDQF0zKFtPSF0pW0NIMl1bQ0BIXTJbQ0BASF00W0NAQF0xKFtPSF0pYyhuW2NIXVtjSF1bY0hdNSljNUMoPU8pW0NIXShbQ0gyXVtDSDJdNilbQ0BAXTMoW0NIM10pW0NASF0oW09IXSlbQ0BASF0oW0NAXTQ2NylPW0NIMl1PNw==

>  <s_epik_cmdline>  (8) 
J2VwaWtfcHl0aG9uJywgJy1waHQnLCAnMi4wJywgJy1waCcsICc3LjAnLCAnLXRuJywgJzgnLCAnLW1hJywgJzIwMCcsICctaW1hZScsICc8aW5maWxlLm1hZT4nLCAnLW9tYWUnLCAnPG91dGZpbGUubWFlPic=

>  <r_lp_tautomer_probability>  (8) 
1

>  <r_epik_Ionization_Penalty>  (8) 
6.66799e-06

>  <r_epik_Ionization_Penalty_Charging>  (8) 
0

>  <r_epik_Ionization_Penalty_Neutral>  (8) 
6.66799e-06

>  <r_epik_State_Penalty>  (8) 
-0

>  <r_epik_Charging_Adjusted_Penalty>  (8) 
0

>  <i_epik_Tot_Q>  (8) 
0

>  <i_epik_Tot_abs_Q>  (8) 
0

>  <s_epik_Chemistry_Notes>  (8) 
This compound contains an acetal/aminal-like group ( X-CH(R)-Y where X, Y are N, S, or O) that may be acid/base labile, releasing an aldehyde.

>  <s_lp_Force_Field>  (8) 
OPLS3e

>  <r_lp_Energy>  (8) 
184.061

>  <b_lp_Chiralities_Consistent>  (8) 
1

>  <s_lp_Variant>  (8) 
2:0-1

>  <s_i_glide_gridfile>  (8) 
pfpi4k_grid

>  <i_i_glide_lignum>  (8) 
3

>  <i_i_glide_rotatable_bonds>  (8) 
5

>  <r_i_docking_score>  (8) 
-2.39444

>  <r_i_glide_ligand_efficiency>  (8) 
-0.0704248

>  <r_i_glide_ligand_efficiency_sa>  (8) 
-0.228149

>  <r_i_glide_ligand_efficiency_ln>  (8) 
-0.529

>  <r_i_glide_gscore>  (8) 
-2.39444

>  <r_i_glide_lipo>  (8) 
-0.373772

>  <r_i_glide_hbond>  (8) 
-0.14797

>  <r_i_glide_metal>  (8) 
-0

>  <r_i_glide_rewards>  (8) 
-0.705192

>  <r_i_glide_evdw>  (8) 
-18.1888

>  <r_i_glide_ecoul>  (8) 
-1.42193

>  <r_i_glide_erotb>  (8) 
0

>  <r_i_glide_esite>  (8) 
-0.0447824

>  <r_i_glide_emodel>  (8) 
-26.59

>  <r_i_glide_energy>  (8) 
-19.6107

>  <r_i_glide_einternal>  (8) 
6.14566

>  <r_i_glide_intrahb_reward>  (8) 
-0.5

>  <i_i_glide_confnum>  (8) 
1

>  <i_i_glide_posenum>  (8) 
1

>  <r_i_glide_eff_state_penalty>  (8) 
0

>  <ligand_id>  (8) 
2

>  <original_smiles>  (8) 
CCC12C(=O)C3(O)c4ncccc4C(=O)C4CCC56OCOC5C(O)C4(C)C1(O)CC(C36)C2O

>  <smiles>  (8) 
[H]OC12C(=O)C3(C([H])([H])C([H])([H])[H])C([H])(O[H])C4([H])C([H])([H])C3(O[H])C3(C([H])([H])[H])C([H])(O[H])C5([H])OC([H])([H])OC5(C([H])([H])C([H])([H])C3([H])C(=O)c3c1nc([H])c([H])c3[H])C24[H]

$$$$
2:0:2
     RDKit          3D

 63 69  0  0  1  0  0  0  0  0999 V2000
    5.8647   -3.0031    7.8372 C   0  0  0  0  0  0  0  0  0  0  0  0
    5.7438   -2.7737    6.3081 C   0  0  0  0  0  0  0  0  0  0  0  0
    4.3102   -2.5575    5.6714 C   0  0  2  0  0  0  0  0  0  0  0  0
    4.3035   -3.0396    4.2071 C   0  0  0  0  0  0  0  0  0  0  0  0
    5.3408   -3.4159    3.6547 O   0  0  0  0  0  0  0  0  0  0  0  0
    2.9507   -3.1453    3.4564 C   0  0  2  0  0  0  0  0  0  0  0  0
    2.6794   -4.5412    3.4392 O   0  0  0  0  0  0  0  0  0  0  0  0
    3.1847   -2.7487    1.9578 C   0  0  0  0  0  0  0  0  0  0  0  0
    2.6319   -3.5930    1.0385 N   0  0  0  0  0  0  0  0  0  0  0  0
    2.9425   -3.4577   -0.2681 C   0  0  0  0  0  0  0  0  0  0  0  0
    3.8370   -2.4894   -0.7503 C   0  0  0  0  0  0  0  0  0  0  0  0
    4.3942   -1.5879    0.1719 C   0  0  0  0  0  0  0  0  0  0  0  0
    4.0409   -1.6891    1.5337 C   0  0  0  0  0  0  0  0  0  0  0  0
    4.5345   -0.6418    2.4493 C   0  0  0  0  0  0  0  0  0  0  0  0
    5.7074   -0.2937    2.5352 O   0  0  0  0  0  0  0  0  0  0  0  0
    3.4359    0.0848    3.2185 C   0  0  1  0  0  0  0  0  0  0  0  0
    2.1380    0.2570    2.3421 C   0  0  0  0  0  0  0  0  0  0  0  0
    1.0085   -0.7772    2.4890 C   0  0  0  0  0  0  0  0  0  0  0  0
    0.8626   -1.2422    3.9397 C   0  0  2  0  0  0  0  0  0  0  0  0
   -0.4993   -1.6251    4.0817 O   0  0  0  0  0  0  0  0  0  0  0  0
   -0.9485   -1.2412    5.3333 C   0  0  0  0  0  0  0  0  0  0  0  0
   -0.2177   -0.1577    5.7752 O   0  0  0  0  0  0  0  0  0  0  0  0
    0.7590    0.0819    4.7749 C   0  0  1  0  0  0  0  0  0  0  0  0
    2.0612    0.8846    5.1484 C   0  0  1  0  0  0  0  0  0  0  0  0
    1.9673    1.4842    6.4301 O   0  0  0  0  0  0  0  0  0  0  0  0
    3.4355    0.1713    4.8423 C   0  0  2  0  0  0  0  0  0  0  0  0
    4.5479    1.2517    5.1080 C   0  0  0  0  0  0  0  0  0  0  0  0
    3.6543   -1.0859    5.9189 C   0  0  2  0  0  0  0  0  0  0  0  0
    4.3451   -0.5269    7.0204 O   0  0  0  0  0  0  0  0  0  0  0  0
    2.3591   -1.5280    6.6426 C   0  0  0  0  0  0  0  0  0  0  0  0
    1.9462   -2.7937    5.9133 C   0  0  1  0  0  0  0  0  0  0  0  0
    1.7189   -2.5635    4.3457 C   0  0  2  0  0  0  0  0  0  0  0  0
    3.2488   -3.5223    6.2984 C   0  0  1  0  0  0  0  0  0  0  0  0
    3.3043   -4.9202    6.0587 O   0  0  0  0  0  0  0  0  0  0  0  0
    6.9051   -3.1856    8.1083 H   0  0  0  0  0  0  0  0  0  0  0  0
    5.3113   -3.8760    8.1817 H   0  0  0  0  0  0  0  0  0  0  0  0
    5.5377   -2.1501    8.4293 H   0  0  0  0  0  0  0  0  0  0  0  0
    6.3785   -1.9301    6.0365 H   0  0  0  0  0  0  0  0  0  0  0  0
    6.2385   -3.6444    5.8763 H   0  0  0  0  0  0  0  0  0  0  0  0
    3.3918   -4.9590    2.9757 H   0  0  0  0  0  0  0  0  0  0  0  0
    2.4543   -4.1442   -0.9445 H   0  0  0  0  0  0  0  0  0  0  0  0
    4.0554   -2.4255   -1.8072 H   0  0  0  0  0  0  0  0  0  0  0  0
    5.0545   -0.8072   -0.1769 H   0  0  0  0  0  0  0  0  0  0  0  0
    3.8012    1.0730    2.9545 H   0  0  0  0  0  0  0  0  0  0  0  0
    1.7232    1.2541    2.4930 H   0  0  0  0  0  0  0  0  0  0  0  0
    2.3893    0.3013    1.2817 H   0  0  0  0  0  0  0  0  0  0  0  0
    0.0987   -0.2561    2.1830 H   0  0  0  0  0  0  0  0  0  0  0  0
    1.0477   -1.6001    1.7825 H   0  0  0  0  0  0  0  0  0  0  0  0
   -2.0079   -0.9897    5.2756 H   0  0  0  0  0  0  0  0  0  0  0  0
   -0.8108   -2.0637    6.0322 H   0  0  0  0  0  0  0  0  0  0  0  0
    0.1837    0.7868    4.1734 H   0  0  0  0  0  0  0  0  0  0  0  0
    2.0418    1.7869    4.5374 H   0  0  0  0  0  0  0  0  0  0  0  0
    1.1917    2.0250    6.4573 H   0  0  0  0  0  0  0  0  0  0  0  0
    4.5221    1.6693    6.1151 H   0  0  0  0  0  0  0  0  0  0  0  0
    4.4413    2.1407    4.4826 H   0  0  0  0  0  0  0  0  0  0  0  0
    5.5494    0.8534    4.9371 H   0  0  0  0  0  0  0  0  0  0  0  0
    5.2010   -0.2539    6.7236 H   0  0  0  0  0  0  0  0  0  0  0  0
    2.5554   -1.7452    7.6955 H   0  0  0  0  0  0  0  0  0  0  0  0
    1.5828   -0.8319    6.8615 H   0  0  0  0  0  0  0  0  0  0  0  0
    1.0882   -3.2658    6.3945 H   0  0  0  0  0  0  0  0  0  0  0  0
    0.9529   -3.3160    4.1394 H   0  0  0  0  0  0  0  0  0  0  0  0
    3.3391   -3.5514    7.3847 H   0  0  0  0  0  0  0  0  0  0  0  0
    4.1167   -5.2601    6.4036 H   0  0  0  0  0  0  0  0  0  0  0  0
  1  2  1  0
  1 35  1  0
  1 36  1  0
  1 37  1  0
  3  2  1  1
  2 38  1  0
  2 39  1  0
  3 28  1  0
  3 33  1  0
  3  4  1  0
  4  5  2  0
  4  6  1  0
  6 32  1  0
  6  7  1  6
  6  8  1  0
  7 40  1  0
  8 13  2  0
  8  9  1  0
  9 10  2  0
 10 11  1  0
 10 41  1  0
 11 12  2  0
 11 42  1  0
 12 13  1  0
 12 43  1  0
 13 14  1  0
 14 15  2  0
 14 16  1  0
 16 26  1  0
 16 17  1  0
 16 44  1  6
 17 18  1  0
 17 45  1  0
 17 46  1  0
 18 19  1  0
 18 47  1  0
 18 48  1  0
 19 23  1  0
 19 32  1  0
 19 20  1  6
 20 21  1  0
 21 22  1  0
 21 49  1  0
 21 50  1  0
 22 23  1  0
 23 24  1  0
 23 51  1  6
 24 25  1  0
 24 26  1  0
 24 52  1  6
 25 53  1  0
 26 27  1  6
 26 28  1  0
 27 54  1  0
 27 55  1  0
 27 56  1  0
 28 29  1  1
 28 30  1  0
 29 57  1  0
 30 31  1  0
 30 58  1  0
 30 59  1  0
 31 32  1  0
 31 33  1  0
 31 60  1  1
 32 61  1  6
 33 34  1  0
 33 62  1  1
 34 63  1  0
M  END
>  <i_m_ct_stereo_status>  (9) 
1

>  <s_m_source_file>  (9) 
/var/tmp/pbs.5076255.sched01/tmpsofmo5yl/0au1p7r3z.sdf

>  <i_m_source_file_index>  (9) 
3

>  <i_lp_mmshare_version>  (9) 
48012

>  <i_f3d_flags>  (9) 
0

>  <s_epik_input>  (9) 
W0NIM11bQ0gyXVtDQEBdKEMxPU8pKFtDQEBIXTJbT0hdKVtDQF0zKFtPSF0pW0NIMl1bQ0BIXTJbQ0BASF00W0NAQF0xKFtPSF0pYyhuW2NIXVtjSF1bY0hdNSljNUMoPU8pW0NIXShbQ0gyXVtDSDJdNilbQ0BAXTMoW0NIM10pW0NASF0oW09IXSlbQ0BASF0oW0NAXTQ2NylPW0NIMl1PNw==

>  <s_epik_cmdline>  (9) 
J2VwaWtfcHl0aG9uJywgJy1waHQnLCAnMi4wJywgJy1waCcsICc3LjAnLCAnLXRuJywgJzgnLCAnLW1hJywgJzIwMCcsICctaW1hZScsICc8aW5maWxlLm1hZT4nLCAnLW9tYWUnLCAnPG91dGZpbGUubWFlPic=

>  <r_lp_tautomer_probability>  (9) 
1

>  <r_epik_Ionization_Penalty>  (9) 
6.66799e-06

>  <r_epik_Ionization_Penalty_Charging>  (9) 
0

>  <r_epik_Ionization_Penalty_Neutral>  (9) 
6.66799e-06

>  <r_epik_State_Penalty>  (9) 
-0

>  <r_epik_Charging_Adjusted_Penalty>  (9) 
0

>  <i_epik_Tot_Q>  (9) 
0

>  <i_epik_Tot_abs_Q>  (9) 
0

>  <s_epik_Chemistry_Notes>  (9) 
This compound contains an acetal/aminal-like group ( X-CH(R)-Y where X, Y are N, S, or O) that may be acid/base labile, releasing an aldehyde.

>  <s_lp_Force_Field>  (9) 
OPLS3e

>  <r_lp_Energy>  (9) 
184.061

>  <b_lp_Chiralities_Consistent>  (9) 
1

>  <s_lp_Variant>  (9) 
2:0-1

>  <s_i_glide_gridfile>  (9) 
pfpi4k_grid

>  <i_i_glide_lignum>  (9) 
3

>  <i_i_glide_rotatable_bonds>  (9) 
5

>  <r_i_docking_score>  (9) 
-1.46766

>  <r_i_glide_ligand_efficiency>  (9) 
-0.0431665

>  <r_i_glide_ligand_efficiency_sa>  (9) 
-0.139843

>  <r_i_glide_ligand_efficiency_ln>  (9) 
-0.324248

>  <r_i_glide_gscore>  (9) 
-1.46766

>  <r_i_glide_lipo>  (9) 
-0.0401789

>  <r_i_glide_hbond>  (9) 
-0.168762

>  <r_i_glide_metal>  (9) 
-0

>  <r_i_glide_rewards>  (9) 
-0.314902

>  <r_i_glide_evdw>  (9) 
-20.406

>  <r_i_glide_ecoul>  (9) 
0.748971

>  <r_i_glide_erotb>  (9) 
0

>  <r_i_glide_esite>  (9) 
-0.0358654

>  <r_i_glide_emodel>  (9) 
-19.2475

>  <r_i_glide_energy>  (9) 
-19.657

>  <r_i_glide_einternal>  (9) 
7.13353

>  <r_i_glide_intrahb_reward>  (9) 
-0

>  <i_i_glide_confnum>  (9) 
2

>  <i_i_glide_posenum>  (9) 
35

>  <r_i_glide_eff_state_penalty>  (9) 
0

>  <ligand_id>  (9) 
2

>  <original_smiles>  (9) 
CCC12C(=O)C3(O)c4ncccc4C(=O)C4CCC56OCOC5C(O)C4(C)C1(O)CC(C36)C2O

>  <smiles>  (9) 
[H]OC12C(=O)C3(C([H])([H])C([H])([H])[H])C([H])(O[H])C4([H])C([H])([H])C3(O[H])C3(C([H])([H])[H])C([H])(O[H])C5([H])OC([H])([H])OC5(C([H])([H])C([H])([H])C3([H])C(=O)c3c1nc([H])c([H])c3[H])C24[H]

$$$$
4:0:0
     RDKit          3D

 32 37  0  0  1  0  0  0  0  0999 V2000
    3.9191   -1.2317   -4.1969 C   0  0  0  0  0  0  0  0  0  0  0  0
    3.4912   -2.1032   -2.9973 C   0  0  2  0  0  0  0  0  0  0  0  0
    3.0151   -1.1631   -1.7657 N   0  0  0  0  0  0  0  0  0  0  0  0
    3.9742   -1.0751   -0.5043 C   0  0  1  0  0  0  0  0  0  0  0  0
    4.3623   -1.9914    0.8294 C   0  0  2  0  0  0  0  0  0  0  0  0
    5.8999   -1.7505    0.8144 C   0  0  0  0  0  0  0  0  0  0  0  0
    6.2444   -2.1169   -0.6574 C   0  0  2  0  0  0  0  0  0  0  0  0
    4.9147   -1.8705   -1.1403 C   0  0  1  0  0  0  0  0  0  0  0  0
    3.9653   -3.3012   -1.3343 C   0  0  1  0  0  0  0  0  0  0  0  0
    4.6342   -3.3279   -2.5329 C   0  0  2  0  0  0  0  0  0  0  0  0
    5.9510   -3.4414   -1.4192 C   0  0  2  0  0  0  0  0  0  0  0  0
    5.5459   -4.2603   -0.1712 C   0  0  1  0  0  0  0  0  0  0  0  0
    4.4934   -3.5837    0.8464 C   0  0  2  0  0  0  0  0  0  0  0  0
    4.1688   -4.3083   -0.3459 C   0  0  1  0  0  0  0  0  0  0  0  0
    4.1543   -1.8330   -5.0691 H   0  0  0  0  0  0  0  0  0  0  0  0
    4.7957   -0.6247   -3.9855 H   0  0  0  0  0  0  0  0  0  0  0  0
    3.1193   -0.5498   -4.4902 H   0  0  0  0  0  0  0  0  0  0  0  0
    2.5944   -2.6079   -3.3586 H   0  0  0  0  0  0  0  0  0  0  0  0
    2.8982   -0.2330   -2.1419 H   0  0  0  0  0  0  0  0  0  0  0  0
    4.3112   -0.0503   -0.3684 H   0  0  0  0  0  0  0  0  0  0  0  0
    3.9078   -1.6325    1.7546 H   0  0  0  0  0  0  0  0  0  0  0  0
    6.1327   -0.7049    1.0115 H   0  0  0  0  0  0  0  0  0  0  0  0
    6.4654   -2.3385    1.5515 H   0  0  0  0  0  0  0  0  0  0  0  0
    7.0466   -1.5290   -1.0871 H   0  0  0  0  0  0  0  0  0  0  0  0
    5.2867   -1.2256   -1.9623 H   0  0  0  0  0  0  0  0  0  0  0  0
    2.8629   -3.3723   -1.3526 H   0  0  0  0  0  0  0  0  0  0  0  0
    4.4650   -4.2633   -3.0649 H   0  0  0  0  0  0  0  0  0  0  0  0
    6.8558   -3.8517   -1.8706 H   0  0  0  0  0  0  0  0  0  0  0  0
    6.0508   -5.1942    0.0697 H   0  0  0  0  0  0  0  0  0  0  0  0
    4.3729   -4.0814    1.8163 H   0  0  0  0  0  0  0  0  0  0  0  0
    3.6403   -5.2596   -0.3442 H   0  0  0  0  0  0  0  0  0  0  0  0
    2.0747   -1.4418   -1.4325 H   0  0  0  0  0  0  0  0  0  0  0  0
  1  2  1  0
  1 15  1  0
  1 16  1  0
  1 17  1  0
  2 10  1  0
  2  3  1  0
  2 18  1  6
  3  4  1  0
  3 19  1  0
  3 32  1  0
  4  8  1  0
  4  5  1  0
  4 20  1  1
  5 13  1  0
  5  6  1  0
  5 21  1  1
  6  7  1  0
  6 22  1  0
  6 23  1  0
  7 11  1  0
  7  8  1  0
  7 24  1  6
  8  9  1  0
  8 25  1  6
  9 14  1  0
  9 10  1  0
  9 26  1  6
 10 11  1  0
 10 27  1  6
 11 12  1  0
 11 28  1  6
 12 14  1  0
 12 13  1  0
 12 29  1  1
 13 14  1  0
 13 30  1  1
 14 31  1  1
M  CHG  1   3   1
M  END
>  <i_m_ct_stereo_status>  (10) 
1

>  <s_m_source_file>  (10) 
/var/tmp/pbs.5076255.sched01/tmpsofmo5yl/0au1p7r3z.sdf

>  <i_m_source_file_index>  (10) 
5

>  <i_lp_mmshare_version>  (10) 
48012

>  <i_f3d_flags>  (10) 
0

>  <s_epik_input>  (10) 
W0NIM11bQ0BIXShbTkhdMSlbQ0BASF0yW0NAQEhdKFtDQEBIXTM0KVtDQEBIXTVbQ0BASF0oW0NIMl02KVtDQEhdMltDQEhdM1tDQEhdNFtDQEBIXTZbQ0BIXTE1

>  <s_epik_cmdline>  (10) 
J2VwaWtfcHl0aG9uJywgJy1waHQnLCAnMi4wJywgJy1waCcsICc3LjAnLCAnLXRuJywgJzgnLCAnLW1hJywgJzIwMCcsICctaW1hZScsICc8aW5maWxlLm1hZT4nLCAnLW9tYWUnLCAnPG91dGZpbGUubWFlPic=

>  <r_lp_tautomer_probability>  (10) 
1

>  <r_epik_Ionization_Penalty>  (10) 
0.000101009

>  <r_epik_Ionization_Penalty_Charging>  (10) 
0.000101009

>  <r_epik_Ionization_Penalty_Neutral>  (10) 
0

>  <r_epik_State_Penalty>  (10) 
-0

>  <r_epik_Charging_Adjusted_Penalty>  (10) 
0.000101009

>  <i_epik_Tot_Q>  (10) 
1

>  <i_epik_Tot_abs_Q>  (10) 
1

>  <s_lp_Force_Field>  (10) 
OPLS3e

>  <r_lp_Energy>  (10) 
351.326

>  <b_lp_Chiralities_Consistent>  (10) 
1

>  <s_lp_Variant>  (10) 
4:0-1

>  <s_i_glide_gridfile>  (10) 
pfpi4k_grid

>  <i_i_glide_lignum>  (10) 
5

>  <i_i_glide_rotatable_bonds>  (10) 
0

>  <r_i_docking_score>  (10) 
-4.5567

>  <r_i_glide_ligand_efficiency>  (10) 
-0.325479

>  <r_i_glide_ligand_efficiency_sa>  (10) 
-0.78445

>  <r_i_glide_ligand_efficiency_ln>  (10) 
-1.25217

>  <r_i_glide_gscore>  (10) 
-4.5567

>  <r_i_glide_lipo>  (10) 
-0.410603

>  <r_i_glide_hbond>  (10) 
-0.189641

>  <r_i_glide_metal>  (10) 
-0

>  <r_i_glide_rewards>  (10) 
-2.1253

>  <r_i_glide_evdw>  (10) 
-16.4468

>  <r_i_glide_ecoul>  (10) 
-6.11466

>  <r_i_glide_erotb>  (10) 
0

>  <r_i_glide_esite>  (10) 
-0.0916127

>  <r_i_glide_emodel>  (10) 
-30.0969

>  <r_i_glide_energy>  (10) 
-22.5615

>  <r_i_glide_einternal>  (10) 
0

>  <r_i_glide_intrahb_reward>  (10) 
-0

>  <i_i_glide_confnum>  (10) 
1

>  <i_i_glide_posenum>  (10) 
1

>  <r_i_glide_eff_state_penalty>  (10) 
0

>  <ligand_id>  (10) 
4

>  <original_smiles>  (10) 
CC1NC2C3CC4C2C2C1C4C1C3C21

>  <smiles>  (10) 
[H]C([H])([H])C1([H])C2([H])C3([H])C4([H])C([H])([H])C5([H])C6([H])C3([H])C6([H])C2([H])C4([H])C5([H])[N+]1([H])[H]

$$$$
4:0:1
     RDKit          3D

 32 37  0  0  1  0  0  0  0  0999 V2000
    3.4564   -0.8149   -3.7366 C   0  0  0  0  0  0  0  0  0  0  0  0
    4.1102   -2.0398   -3.0613 C   0  0  2  0  0  0  0  0  0  0  0  0
    2.9851   -3.1367   -2.6362 N   0  0  0  0  0  0  0  0  0  0  0  0
    2.6755   -3.2986   -1.0986 C   0  0  1  0  0  0  0  0  0  0  0  0
    3.3568   -4.0164    0.2439 C   0  0  2  0  0  0  0  0  0  0  0  0
    3.0760   -2.8690    1.2533 C   0  0  0  0  0  0  0  0  0  0  0  0
    3.6647   -1.6362    0.4971 C   0  0  2  0  0  0  0  0  0  0  0  0
    3.5439   -2.2601   -0.7949 C   0  0  1  0  0  0  0  0  0  0  0  0
    5.0132   -2.9466   -1.3898 C   0  0  1  0  0  0  0  0  0  0  0  0
    5.2213   -1.6479   -1.7740 C   0  0  2  0  0  0  0  0  0  0  0  0
    5.1086   -1.4578   -0.0629 C   0  0  2  0  0  0  0  0  0  0  0  0
    5.7259   -2.6831    0.6618 C   0  0  1  0  0  0  0  0  0  0  0  0
    4.9219   -4.0849    0.5671 C   0  0  2  0  0  0  0  0  0  0  0  0
    5.8516   -3.5653   -0.4087 C   0  0  1  0  0  0  0  0  0  0  0  0
    4.2103   -0.1148   -4.1034 H   0  0  0  0  0  0  0  0  0  0  0  0
    2.7832   -0.2646   -3.0743 H   0  0  0  0  0  0  0  0  0  0  0  0
    2.8657   -1.1386   -4.5976 H   0  0  0  0  0  0  0  0  0  0  0  0
    4.6965   -2.4990   -3.8624 H   0  0  0  0  0  0  0  0  0  0  0  0
    2.1225   -2.8974   -3.1064 H   0  0  0  0  0  0  0  0  0  0  0  0
    1.6282   -3.0668   -0.9167 H   0  0  0  0  0  0  0  0  0  0  0  0
    2.8699   -4.9515    0.5258 H   0  0  0  0  0  0  0  0  0  0  0  0
    2.0017   -2.7363    1.3995 H   0  0  0  0  0  0  0  0  0  0  0  0
    3.5140   -3.0221    2.2439 H   0  0  0  0  0  0  0  0  0  0  0  0
    3.1035   -0.7071    0.6434 H   0  0  0  0  0  0  0  0  0  0  0  0
    3.0232   -1.3716   -1.2098 H   0  0  0  0  0  0  0  0  0  0  0  0
    5.1201   -3.7385   -2.1541 H   0  0  0  0  0  0  0  0  0  0  0  0
    6.2373   -1.5126   -2.1404 H   0  0  0  0  0  0  0  0  0  0  0  0
    5.5781   -0.5385    0.3014 H   0  0  0  0  0  0  0  0  0  0  0  0
    6.5850   -2.5651    1.3174 H   0  0  0  0  0  0  0  0  0  0  0  0
    5.2526   -4.8746    1.2410 H   0  0  0  0  0  0  0  0  0  0  0  0
    6.8066   -4.0361   -0.6401 H   0  0  0  0  0  0  0  0  0  0  0  0
    3.2835   -4.0506   -2.9542 H   0  0  0  0  0  0  0  0  0  0  0  0
  1  2  1  0
  1 15  1  0
  1 16  1  0
  1 17  1  0
  2 10  1  0
  2  3  1  0
  2 18  1  6
  3  4  1  0
  3 19  1  0
  3 32  1  0
  4  8  1  0
  4  5  1  0
  4 20  1  6
  5 13  1  0
  5  6  1  0
  5 21  1  1
  6  7  1  0
  6 22  1  0
  6 23  1  0
  7 11  1  0
  7  8  1  0
  7 24  1  6
  8  9  1  0
  8 25  1  6
  9 14  1  0
  9 10  1  0
  9 26  1  6
 10 11  1  0
 10 27  1  6
 11 12  1  0
 11 28  1  1
 12 14  1  0
 12 13  1  0
 12 29  1  1
 13 14  1  0
 13 30  1  1
 14 31  1  6
M  CHG  1   3   1
M  END
>  <i_m_ct_stereo_status>  (11) 
1

>  <s_m_source_file>  (11) 
/var/tmp/pbs.5076255.sched01/tmpsofmo5yl/0au1p7r3z.sdf

>  <i_m_source_file_index>  (11) 
5

>  <i_lp_mmshare_version>  (11) 
48012

>  <i_f3d_flags>  (11) 
0

>  <s_epik_input>  (11) 
W0NIM11bQ0BIXShbTkhdMSlbQ0BASF0yW0NAQEhdKFtDQEBIXTM0KVtDQEBIXTVbQ0BASF0oW0NIMl02KVtDQEhdMltDQEhdM1tDQEhdNFtDQEBIXTZbQ0BIXTE1

>  <s_epik_cmdline>  (11) 
J2VwaWtfcHl0aG9uJywgJy1waHQnLCAnMi4wJywgJy1waCcsICc3LjAnLCAnLXRuJywgJzgnLCAnLW1hJywgJzIwMCcsICctaW1hZScsICc8aW5maWxlLm1hZT4nLCAnLW9tYWUnLCAnPG91dGZpbGUubWFlPic=

>  <r_lp_tautomer_probability>  (11) 
1

>  <r_epik_Ionization_Penalty>  (11) 
0.000101009

>  <r_epik_Ionization_Penalty_Charging>  (11) 
0.000101009

>  <r_epik_Ionization_Penalty_Neutral>  (11) 
0

>  <r_epik_State_Penalty>  (11) 
-0

>  <r_epik_Charging_Adjusted_Penalty>  (11) 
0.000101009

>  <i_epik_Tot_Q>  (11) 
1

>  <i_epik_Tot_abs_Q>  (11) 
1

>  <s_lp_Force_Field>  (11) 
OPLS3e

>  <r_lp_Energy>  (11) 
351.326

>  <b_lp_Chiralities_Consistent>  (11) 
1

>  <s_lp_Variant>  (11) 
4:0-1

>  <s_i_glide_gridfile>  (11) 
pfpi4k_grid

>  <i_i_glide_lignum>  (11) 
5

>  <i_i_glide_rotatable_bonds>  (11) 
0

>  <r_i_docking_score>  (11) 
-4.28582

>  <r_i_glide_ligand_efficiency>  (11) 
-0.30613

>  <r_i_glide_ligand_efficiency_sa>  (11) 
-0.737817

>  <r_i_glide_ligand_efficiency_ln>  (11) 
-1.17773

>  <r_i_glide_gscore>  (11) 
-4.28582

>  <r_i_glide_lipo>  (11) 
-0.552559

>  <r_i_glide_hbond>  (11) 
0

>  <r_i_glide_metal>  (11) 
-0

>  <r_i_glide_rewards>  (11) 
-2.1253

>  <r_i_glide_evdw>  (11) 
-19.6458

>  <r_i_glide_ecoul>  (11) 
-3.98478

>  <r_i_glide_erotb>  (11) 
0

>  <r_i_glide_esite>  (11) 
-0.0279502

>  <r_i_glide_emodel>  (11) 
-30.7596

>  <r_i_glide_energy>  (11) 
-23.6306

>  <r_i_glide_einternal>  (11) 
0

>  <r_i_glide_intrahb_reward>  (11) 
-0

>  <i_i_glide_confnum>  (11) 
2

>  <i_i_glide_posenum>  (11) 
6

>  <r_i_glide_eff_state_penalty>  (11) 
0

>  <ligand_id>  (11) 
4

>  <original_smiles>  (11) 
CC1NC2C3CC4C2C2C1C4C1C3C21

>  <smiles>  (11) 
[H]C([H])([H])C1([H])C2([H])C3([H])C4([H])C([H])([H])C5([H])C6([H])C3([H])C6([H])C2([H])C4([H])C5([H])[N+]1([H])[H]

$$$$
4:0:2
     RDKit          3D

 32 37  0  0  1  0  0  0  0  0999 V2000
    3.9497   -1.4561   -3.3854 C   0  0  0  0  0  0  0  0  0  0  0  0
    3.5329   -1.7582   -1.9392 C   0  0  2  0  0  0  0  0  0  0  0  0
    4.2364   -0.7543   -0.8818 N   0  0  0  0  0  0  0  0  0  0  0  0
    5.3671   -1.3440    0.0367 C   0  0  1  0  0  0  0  0  0  0  0  0
    5.4839   -2.2655    1.4123 C   0  0  2  0  0  0  0  0  0  0  0  0
    6.6734   -3.1606    0.9556 C   0  0  0  0  0  0  0  0  0  0  0  0
    6.1732   -3.6728   -0.4250 C   0  0  2  0  0  0  0  0  0  0  0  0
    5.2599   -2.5755   -0.5946 C   0  0  1  0  0  0  0  0  0  0  0  0
    3.6186   -2.9388   -0.2054 C   0  0  1  0  0  0  0  0  0  0  0  0
    3.6460   -3.4346   -1.4790 C   0  0  2  0  0  0  0  0  0  0  0  0
    4.8486   -4.4248   -0.7417 C   0  0  2  0  0  0  0  0  0  0  0  0
    4.4646   -4.7275    0.7265 C   0  0  1  0  0  0  0  0  0  0  0  0
    4.5436   -3.5070    1.7777 C   0  0  2  0  0  0  0  0  0  0  0  0
    3.4393   -3.8092    0.9107 C   0  0  1  0  0  0  0  0  0  0  0  0
    3.3961   -2.0641   -4.1068 H   0  0  0  0  0  0  0  0  0  0  0  0
    5.0137   -1.6120   -3.5702 H   0  0  0  0  0  0  0  0  0  0  0  0
    3.7347   -0.4115   -3.6233 H   0  0  0  0  0  0  0  0  0  0  0  0
    2.4802   -1.5172   -1.9569 H   0  0  0  0  0  0  0  0  0  0  0  0
    4.6139    0.0243   -1.4057 H   0  0  0  0  0  0  0  0  0  0  0  0
    6.3035   -0.8390   -0.1602 H   0  0  0  0  0  0  0  0  0  0  0  0
    5.7235   -1.6962    2.3090 H   0  0  0  0  0  0  0  0  0  0  0  0
    7.5777   -2.5602    0.8318 H   0  0  0  0  0  0  0  0  0  0  0  0
    6.9300   -3.9704    1.6512 H   0  0  0  0  0  0  0  0  0  0  0  0
    6.9556   -3.7808   -1.1776 H   0  0  0  0  0  0  0  0  0  0  0  0
    5.6532   -2.3724   -1.6102 H   0  0  0  0  0  0  0  0  0  0  0  0
    2.8111   -2.2286    0.0548 H   0  0  0  0  0  0  0  0  0  0  0  0
    2.7229   -3.9723   -1.6982 H   0  0  0  0  0  0  0  0  0  0  0  0
    5.0142   -5.3654   -1.2763 H   0  0  0  0  0  0  0  0  0  0  0  0
    4.2911   -5.7451    1.0554 H   0  0  0  0  0  0  0  0  0  0  0  0
    4.4754   -3.7813    2.8319 H   0  0  0  0  0  0  0  0  0  0  0  0
    2.4721   -4.1309    1.2736 H   0  0  0  0  0  0  0  0  0  0  0  0
    3.5005   -0.4116   -0.2904 H   0  0  0  0  0  0  0  0  0  0  0  0
  1  2  1  0
  1 15  1  0
  1 16  1  0
  1 17  1  0
  2 10  1  0
  2  3  1  0
  2 18  1  6
  3  4  1  0
  3 19  1  0
  3 32  1  0
  4  8  1  0
  4  5  1  0
  4 20  1  6
  5 13  1  0
  5  6  1  0
  5 21  1  1
  6  7  1  0
  6 22  1  0
  6 23  1  0
  7 11  1  0
  7  8  1  0
  7 24  1  6
  8  9  1  0
  8 25  1  6
  9 14  1  0
  9 10  1  0
  9 26  1  6
 10 11  1  0
 10 27  1  1
 11 12  1  0
 11 28  1  6
 12 14  1  0
 12 13  1  0
 12 29  1  1
 13 14  1  0
 13 30  1  1
 14 31  1  1
M  CHG  1   3   1
M  END
>  <i_m_ct_stereo_status>  (12) 
1

>  <s_m_source_file>  (12) 
/var/tmp/pbs.5076255.sched01/tmpsofmo5yl/0au1p7r3z.sdf

>  <i_m_source_file_index>  (12) 
5

>  <i_lp_mmshare_version>  (12) 
48012

>  <i_f3d_flags>  (12) 
0

>  <s_epik_input>  (12) 
W0NIM11bQ0BIXShbTkhdMSlbQ0BASF0yW0NAQEhdKFtDQEBIXTM0KVtDQEBIXTVbQ0BASF0oW0NIMl02KVtDQEhdMltDQEhdM1tDQEhdNFtDQEBIXTZbQ0BIXTE1

>  <s_epik_cmdline>  (12) 
J2VwaWtfcHl0aG9uJywgJy1waHQnLCAnMi4wJywgJy1waCcsICc3LjAnLCAnLXRuJywgJzgnLCAnLW1hJywgJzIwMCcsICctaW1hZScsICc8aW5maWxlLm1hZT4nLCAnLW9tYWUnLCAnPG91dGZpbGUubWFlPic=

>  <r_lp_tautomer_probability>  (12) 
1

>  <r_epik_Ionization_Penalty>  (12) 
0.000101009

>  <r_epik_Ionization_Penalty_Charging>  (12) 
0.000101009

>  <r_epik_Ionization_Penalty_Neutral>  (12) 
0

>  <r_epik_State_Penalty>  (12) 
-0

>  <r_epik_Charging_Adjusted_Penalty>  (12) 
0.000101009

>  <i_epik_Tot_Q>  (12) 
1

>  <i_epik_Tot_abs_Q>  (12) 
1

>  <s_lp_Force_Field>  (12) 
OPLS3e

>  <r_lp_Energy>  (12) 
351.326

>  <b_lp_Chiralities_Consistent>  (12) 
1

>  <s_lp_Variant>  (12) 
4:0-1

>  <s_i_glide_gridfile>  (12) 
pfpi4k_grid

>  <i_i_glide_lignum>  (12) 
5

>  <i_i_glide_rotatable_bonds>  (12) 
0

>  <r_i_docking_score>  (12) 
-3.92132

>  <r_i_glide_ligand_efficiency>  (12) 
-0.280094

>  <r_i_glide_ligand_efficiency_sa>  (12) 
-0.675067

>  <r_i_glide_ligand_efficiency_ln>  (12) 
-1.07756

>  <r_i_glide_gscore>  (12) 
-3.92132

>  <r_i_glide_lipo>  (12) 
-0.450154

>  <r_i_glide_hbond>  (12) 
0

>  <r_i_glide_metal>  (12) 
-0

>  <r_i_glide_rewards>  (12) 
-2.1253

>  <r_i_glide_evdw>  (12) 
-16.1539

>  <r_i_glide_ecoul>  (12) 
-3.34781

>  <r_i_glide_erotb>  (12) 
0

>  <r_i_glide_esite>  (12) 
-0.0359899

>  <r_i_glide_emodel>  (12) 
-26.0091

>  <r_i_glide_energy>  (12) 
-19.5018

>  <r_i_glide_einternal>  (12) 
0

>  <r_i_glide_intrahb_reward>  (12) 
-0

>  <i_i_glide_confnum>  (12) 
2

>  <i_i_glide_posenum>  (12) 
11

>  <r_i_glide_eff_state_penalty>  (12) 
0

>  <ligand_id>  (12) 
4

>  <original_smiles>  (12) 
CC1NC2C3CC4C2C2C1C4C1C3C21

>  <smiles>  (12) 
[H]C([H])([H])C1([H])C2([H])C3([H])C4([H])C([H])([H])C5([H])C6([H])C3([H])C6([H])C2([H])C4([H])C5([H])[N+]1([H])[H]

$$$$
5:0:0
     RDKit          3D

 95104  0  0  1  0  0  0  0  0999 V2000
    4.4794  -12.3588    3.3808 C   0  0  0  0  0  0  0  0  0  0  0  0
    3.1861  -11.6942    3.7969 C   0  0  0  0  0  0  0  0  0  0  0  0
    2.4413  -11.9460    4.8750 C   0  0  0  0  0  0  0  0  0  0  0  0
    1.1617  -11.1374    4.7666 C   0  0  2  0  0  0  0  0  0  0  0  0
    1.0087  -11.2691    3.2328 C   0  0  0  0  0  0  0  0  0  0  0  0
    2.4323  -10.7059    2.9188 C   0  0  1  0  0  0  0  0  0  0  0  0
    2.1458   -9.3439    3.6185 C   0  0  1  0  0  0  0  0  0  0  0  0
    1.6507   -9.6809    4.9907 C   0  0  1  0  0  0  0  0  0  0  0  0
    0.8945   -8.3837    5.2747 C   0  0  0  0  0  0  0  0  0  0  0  0
   -0.5489   -8.3165    4.7277 C   0  0  0  0  0  0  0  0  0  0  0  0
    0.8821   -8.0330    6.7717 C   0  0  0  0  0  0  0  0  0  0  0  0
    1.7428   -7.4164    4.5810 O   0  0  0  0  0  0  0  0  0  0  0  0
    2.8121   -7.9599    3.7589 C   0  0  2  0  0  0  0  0  0  0  0  0
    2.8757   -7.2877    2.3555 C   0  0  0  0  0  0  0  0  0  0  0  0
    1.9976   -6.0432    2.0388 C   0  0  1  0  0  0  0  0  0  0  0  0
    0.6031   -6.2805    2.1384 O   0  0  0  0  0  0  0  0  0  0  0  0
    2.4706   -4.6226    2.5068 C   0  0  2  0  0  0  0  0  0  0  0  0
    3.8811   -4.5304    3.1223 C   0  0  1  0  0  0  0  0  0  0  0  0
    4.3522   -3.0647    3.0105 C   0  0  0  0  0  0  0  0  0  0  0  0
    3.4321   -2.0732    3.7627 C   0  0  1  0  0  0  0  0  0  0  0  0
    3.8610   -0.7159    3.6172 O   0  0  0  0  0  0  0  0  0  0  0  0
    3.4777   -0.0253    2.4595 C   0  0  1  0  0  0  0  0  0  0  0  0
    4.3719   -0.3890    1.3156 C   0  0  0  0  0  0  0  0  0  0  0  0
    4.1741   -0.6911    0.0002 C   0  0  0  0  0  0  0  0  0  0  0  0
    5.4543   -0.9405   -0.5515 C   0  0  0  0  0  0  0  0  0  0  0  0
    6.3404   -0.7443    0.4700 C   0  0  0  0  0  0  0  0  0  0  0  0
    5.6998   -0.4077    1.6116 O   0  0  0  0  0  0  0  0  0  0  0  0
    2.1371   -0.1896    2.1162 O   0  0  0  0  0  0  0  0  0  0  0  0
    1.6823   -1.5349    2.0718 C   0  0  0  0  0  0  0  0  0  0  0  0
    1.9287   -2.2344    3.4297 C   0  0  2  0  0  0  0  0  0  0  0  0
    1.0779   -1.4820    4.4859 C   0  0  0  0  0  0  0  0  0  0  0  0
    1.5174   -3.7596    3.3759 C   0  0  2  0  0  0  0  0  0  0  0  0
    1.3596   -4.4511    4.7471 C   0  0  0  0  0  0  0  0  0  0  0  0
    2.6821   -4.8156    5.4675 C   0  0  0  0  0  0  0  0  0  0  0  0
    3.9645   -5.0420    4.5916 C   0  0  1  0  0  0  0  0  0  0  0  0
    4.7745   -6.3639    4.7917 C   0  0  1  0  0  0  0  0  0  0  0  0
    6.2327   -6.0930    4.4031 C   0  0  0  0  0  0  0  0  0  0  0  0
    7.0067   -6.2392    5.7226 C   0  0  1  0  0  0  0  0  0  0  0  0
    8.4329   -6.8000    5.5911 C   0  0  0  0  0  0  0  0  0  0  0  0
    7.0734   -4.9804    6.3577 O   0  0  0  0  0  0  0  0  0  0  0  0
    6.2446   -7.1365    6.4637 O   0  0  0  0  0  0  0  0  0  0  0  0
    4.8621   -6.8622    6.2326 C   0  0  2  0  0  0  0  0  0  0  0  0
    4.0526   -8.0169    5.9514 O   0  0  0  0  0  0  0  0  0  0  0  0
    4.1802   -7.7940    4.5220 C   0  0  1  0  0  0  0  0  0  0  0  0
    5.1495   -8.8985    4.0823 C   0  0  0  0  0  0  0  0  0  0  0  0
    5.2558  -11.6296    3.1435 H   0  0  0  0  0  0  0  0  0  0  0  0
    4.2959  -12.9658    2.4927 H   0  0  0  0  0  0  0  0  0  0  0  0
    4.8384  -13.0316    4.1616 H   0  0  0  0  0  0  0  0  0  0  0  0
    2.6731  -12.6295    5.6796 H   0  0  0  0  0  0  0  0  0  0  0  0
    0.3409  -11.5043    5.3802 H   0  0  0  0  0  0  0  0  0  0  0  0
    0.8873  -12.3086    2.9210 H   0  0  0  0  0  0  0  0  0  0  0  0
    0.1540  -10.7284    2.8145 H   0  0  0  0  0  0  0  0  0  0  0  0
    2.6995  -10.6775    1.8617 H   0  0  0  0  0  0  0  0  0  0  0  0
    1.3115   -9.0167    2.9937 H   0  0  0  0  0  0  0  0  0  0  0  0
    2.4671   -9.7367    5.7077 H   0  0  0  0  0  0  0  0  0  0  0  0
   -1.1800   -9.0502    5.2290 H   0  0  0  0  0  0  0  0  0  0  0  0
   -0.6239   -8.5070    3.6577 H   0  0  0  0  0  0  0  0  0  0  0  0
   -0.9791   -7.3305    4.9067 H   0  0  0  0  0  0  0  0  0  0  0  0
    0.2838   -8.7457    7.3365 H   0  0  0  0  0  0  0  0  0  0  0  0
    0.4621   -7.0398    6.9281 H   0  0  0  0  0  0  0  0  0  0  0  0
    1.8835   -8.0318    7.1980 H   0  0  0  0  0  0  0  0  0  0  0  0
    3.9140   -7.0757    2.1078 H   0  0  0  0  0  0  0  0  0  0  0  0
    2.6355   -8.0404    1.6019 H   0  0  0  0  0  0  0  0  0  0  0  0
    2.0969   -5.9925    0.9557 H   0  0  0  0  0  0  0  0  0  0  0  0
    0.4700   -7.2149    2.0398 H   0  0  0  0  0  0  0  0  0  0  0  0
    2.5402   -4.1079    1.5541 H   0  0  0  0  0  0  0  0  0  0  0  0
    4.5772   -5.0964    2.5001 H   0  0  0  0  0  0  0  0  0  0  0  0
    5.3763   -2.9588    3.3729 H   0  0  0  0  0  0  0  0  0  0  0  0
    4.3887   -2.8266    1.9499 H   0  0  0  0  0  0  0  0  0  0  0  0
    3.5551   -2.2752    4.8260 H   0  0  0  0  0  0  0  0  0  0  0  0
    3.6237    1.0323    2.6600 H   0  0  0  0  0  0  0  0  0  0  0  0
    3.2095   -0.7166   -0.4983 H   0  0  0  0  0  0  0  0  0  0  0  0
    5.7074   -1.1757   -1.5759 H   0  0  0  0  0  0  0  0  0  0  0  0
    7.4172   -0.7403    0.5362 H   0  0  0  0  0  0  0  0  0  0  0  0
    0.6210   -1.4968    1.8418 H   0  0  0  0  0  0  0  0  0  0  0  0
    2.1504   -2.0571    1.2390 H   0  0  0  0  0  0  0  0  0  0  0  0
    0.0101   -1.6558    4.3446 H   0  0  0  0  0  0  0  0  0  0  0  0
    1.2388   -0.4045    4.4326 H   0  0  0  0  0  0  0  0  0  0  0  0
    1.3393   -1.7714    5.5040 H   0  0  0  0  0  0  0  0  0  0  0  0
    0.5373   -3.7772    2.9154 H   0  0  0  0  0  0  0  0  0  0  0  0
    0.7207   -3.8776    5.4193 H   0  0  0  0  0  0  0  0  0  0  0  0
    0.7637   -5.3475    4.5920 H   0  0  0  0  0  0  0  0  0  0  0  0
    2.8909   -4.0067    6.1703 H   0  0  0  0  0  0  0  0  0  0  0  0
    2.4769   -5.6717    6.1082 H   0  0  0  0  0  0  0  0  0  0  0  0
    4.6219   -4.3107    5.0645 H   0  0  0  0  0  0  0  0  0  0  0  0
    6.6008   -6.8228    3.6863 H   0  0  0  0  0  0  0  0  0  0  0  0
    6.4288   -5.1154    3.9608 H   0  0  0  0  0  0  0  0  0  0  0  0
    8.8924   -6.8629    6.5788 H   0  0  0  0  0  0  0  0  0  0  0  0
    9.0567   -6.1617    4.9577 H   0  0  0  0  0  0  0  0  0  0  0  0
    8.4128   -7.8038    5.1692 H   0  0  0  0  0  0  0  0  0  0  0  0
    7.5586   -5.0774    7.1633 H   0  0  0  0  0  0  0  0  0  0  0  0
    4.4328   -6.1916    6.9728 H   0  0  0  0  0  0  0  0  0  0  0  0
    5.2585   -8.9398    2.9976 H   0  0  0  0  0  0  0  0  0  0  0  0
    4.8048   -9.8583    4.4482 H   0  0  0  0  0  0  0  0  0  0  0  0
    6.1439   -8.7950    4.5219 H   0  0  0  0  0  0  0  0  0  0  0  0
  1  2  1  0
  1 46  1  0
  1 47  1  0
  1 48  1  0
  2  6  1  0
  2  3  2  0
  3  4  1  0
  3 49  1  0
  4  8  1  0
  4  5  1  0
  4 50  1  1
  5  6  1  0
  5 51  1  0
  5 52  1  0
  6  7  1  0
  6 53  1  6
  7 13  1  0
  7  8  1  0
  7 54  1  6
  8  9  1  0
  8 55  1  1
  9 10  1  0
  9 11  1  0
  9 12  1  0
 10 56  1  0
 10 57  1  0
 10 58  1  0
 11 59  1  0
 11 60  1  0
 11 61  1  0
 13 12  1  1
 13 44  1  0
 13 14  1  0
 14 15  1  0
 14 62  1  0
 14 63  1  0
 15 16  1  0
 15 17  1  0
 15 64  1  6
 16 65  1  0
 17 32  1  0
 17 18  1  0
 17 66  1  6
 18 35  1  0
 18 19  1  0
 18 67  1  6
 19 20  1  0
 19 68  1  0
 19 69  1  0
 20 30  1  0
 20 21  1  0
 20 70  1  1
 21 22  1  0
 22 23  1  0
 22 28  1  0
 22 71  1  1
 23 27  1  0
 23 24  2  0
 24 25  1  0
 24 72  1  0
 25 26  2  0
 25 73  1  0
 26 27  1  0
 26 74  1  0
 28 29  1  0
 29 30  1  0
 29 75  1  0
 29 76  1  0
 30 31  1  1
 30 32  1  0
 31 77  1  0
 31 78  1  0
 31 79  1  0
 32 33  1  0
 32 80  1  6
 33 34  1  0
 33 81  1  0
 33 82  1  0
 34 35  1  0
 34 83  1  0
 34 84  1  0
 35 36  1  0
 35 85  1  1
 36 42  1  0
 36 44  1  0
 36 37  1  6
 37 38  1  0
 37 86  1  0
 37 87  1  0
 38 39  1  0
 38 40  1  1
 38 41  1  0
 39 88  1  0
 39 89  1  0
 39 90  1  0
 40 91  1  0
 41 42  1  0
 42 43  1  0
 42 92  1  1
 43 44  1  0
 44 45  1  6
 45 93  1  0
 45 94  1  0
 45 95  1  0
M  END
>  <i_m_ct_stereo_status>  (13) 
1

>  <s_m_source_file>  (13) 
/var/tmp/pbs.5076255.sched01/tmpsofmo5yl/0au1p7r3z.sdf

>  <i_m_source_file_index>  (13) 
6

>  <i_lp_mmshare_version>  (13) 
48012

>  <i_f3d_flags>  (13) 
0

>  <s_epik_input>  (13) 
W0NIM11DKE8xKShbQ0gzXSlbQ0BIXTJbQ0BASF0oW0NIMl0zKVtDSF09QyhbQ0gzXSlbQ0BASF0zW0NAQEhdMltDQF0xNFtDQEBdNShbQ0gzXSlbQ0BdNihbQ0BASF0oTzUpT1tDQF0oW0NIMl02KShbQ0gzXSlbT0hdKVtDQEhdN1tDQEhdOFtDQEBIXShbQ0BASF0oW0NIMl00KVtPSF0pW0NAQEhdKFtDSDJdW0NIMl03KVtDQEBdOShbQ0gzXSlbQ0BASF0oW0NIMl04KU9bQ0BIXShPW0NIMl05KWMxW2NIXVtjSF1bY0hdbzE=

>  <s_epik_cmdline>  (13) 
J2VwaWtfcHl0aG9uJywgJy1waHQnLCAnMi4wJywgJy1waCcsICc3LjAnLCAnLXRuJywgJzgnLCAnLW1hJywgJzIwMCcsICctaW1hZScsICc8aW5maWxlLm1hZT4nLCAnLW9tYWUnLCAnPG91dGZpbGUubWFlPic=

>  <r_lp_tautomer_probability>  (13) 
1

>  <r_epik_Ionization_Penalty>  (13) 
4.4941e-07

>  <r_epik_Ionization_Penalty_Charging>  (13) 
0

>  <r_epik_Ionization_Penalty_Neutral>  (13) 
4.4941e-07

>  <r_epik_State_Penalty>  (13) 
-0

>  <r_epik_Charging_Adjusted_Penalty>  (13) 
0

>  <i_epik_Tot_Q>  (13) 
0

>  <i_epik_Tot_abs_Q>  (13) 
0

>  <s_epik_Chemistry_Notes>  (13) 
This compound contains an acetal/aminal-like group ( X-CH(R)-Y where X, Y are N, S, or O) that may be acid/base labile, releasing an aldehyde.

>  <s_lp_Force_Field>  (13) 
OPLS3e

>  <r_lp_Energy>  (13) 
141.46

>  <b_lp_Chiralities_Consistent>  (13) 
1

>  <s_lp_Variant>  (13) 
5:0-1

>  <s_i_glide_gridfile>  (13) 
pfpi4k_grid

>  <i_i_glide_lignum>  (13) 
6

>  <i_i_glide_rotatable_bonds>  (13) 
3

>  <r_i_docking_score>  (13) 
-2.5351

>  <r_i_glide_ligand_efficiency>  (13) 
-0.0563356

>  <r_i_glide_ligand_efficiency_sa>  (13) 
-0.20038

>  <r_i_glide_ligand_efficiency_ln>  (13) 
-0.527414

>  <r_i_glide_gscore>  (13) 
-2.5351

>  <r_i_glide_lipo>  (13) 
-0.425162

>  <r_i_glide_hbond>  (13) 
-0.171277

>  <r_i_glide_metal>  (13) 
-0

>  <r_i_glide_rewards>  (13) 
-0.0276915

>  <r_i_glide_evdw>  (13) 
-26.9034

>  <r_i_glide_ecoul>  (13) 
-4.13485

>  <r_i_glide_erotb>  (13) 
0.054427

>  <r_i_glide_esite>  (13) 
0

>  <r_i_glide_emodel>  (13) 
-34.8753

>  <r_i_glide_energy>  (13) 
-31.0383

>  <r_i_glide_einternal>  (13) 
1.16357

>  <r_i_glide_intrahb_reward>  (13) 
-0

>  <i_i_glide_confnum>  (13) 
2

>  <i_i_glide_posenum>  (13) 
8

>  <r_i_glide_eff_state_penalty>  (13) 
0

>  <ligand_id>  (13) 
5

>  <original_smiles>  (13) 
CC1=CC2CC1C1C2C(C)(C)OC12CC(O)C1C3CC4OC(c5ccco5)OCC4(C)C1CCC3C13CC(C)(O)OC1OC23C

>  <smiles>  (13) 
[H]OC1([H])C([H])([H])C2(OC(C([H])([H])[H])(C([H])([H])[H])C3([H])C4([H])C([H])=C(C([H])([H])[H])C([H])(C4([H])[H])C32[H])C2(C([H])([H])[H])OC3([H])OC(O[H])(C([H])([H])[H])C([H])([H])C32C2([H])C([H])([H])C([H])([H])C3([H])C1([H])C2([H])C([H])([H])C1([H])OC([H])(c2oc([H])c([H])c2[H])OC([H])([H])C13C([H])([H])[H]

$$$$
5:0:1
     RDKit          3D

 95104  0  0  1  0  0  0  0  0999 V2000
    0.8419  -10.4198    2.8556 C   0  0  0  0  0  0  0  0  0  0  0  0
    1.1996   -9.9759    4.2567 C   0  0  0  0  0  0  0  0  0  0  0  0
    2.1169  -10.4846    5.0938 C   0  0  0  0  0  0  0  0  0  0  0  0
    1.9839   -9.7555    6.4220 C   0  0  2  0  0  0  0  0  0  0  0  0
    0.4423   -9.6466    6.3823 C   0  0  0  0  0  0  0  0  0  0  0  0
    0.4070   -8.9185    5.0058 C   0  0  1  0  0  0  0  0  0  0  0  0
    1.2632   -7.7137    5.5059 C   0  0  1  0  0  0  0  0  0  0  0  0
    2.4911   -8.3191    6.1125 C   0  0  1  0  0  0  0  0  0  0  0  0
    2.8760   -7.1575    7.0344 C   0  0  0  0  0  0  0  0  0  0  0  0
    2.1660   -7.1274    8.4073 C   0  0  0  0  0  0  0  0  0  0  0  0
    4.3972   -7.0600    7.2522 C   0  0  0  0  0  0  0  0  0  0  0  0
    2.4468   -6.0150    6.2303 O   0  0  0  0  0  0  0  0  0  0  0  0
    1.7044   -6.3152    5.0137 C   0  0  2  0  0  0  0  0  0  0  0  0
    0.4443   -5.4053    4.8599 C   0  0  0  0  0  0  0  0  0  0  0  0
    0.2223   -4.2099    5.8305 C   0  0  1  0  0  0  0  0  0  0  0  0
    0.1996   -4.6153    7.1811 O   0  0  0  0  0  0  0  0  0  0  0  0
    0.9677   -2.8565    5.5786 C   0  0  2  0  0  0  0  0  0  0  0  0
    1.7696   -2.7477    4.2681 C   0  0  1  0  0  0  0  0  0  0  0  0
    1.9464   -1.2524    3.9562 C   0  0  0  0  0  0  0  0  0  0  0  0
    2.7168   -0.4857    5.0544 C   0  0  1  0  0  0  0  0  0  0  0  0
    2.8440    0.9075    4.7588 O   0  0  0  0  0  0  0  0  0  0  0  0
    1.7701    1.7536    5.0647 C   0  0  1  0  0  0  0  0  0  0  0  0
    0.7170    1.7052    3.9944 C   0  0  0  0  0  0  0  0  0  0  0  0
   -0.6180    2.0125    3.9664 C   0  0  0  0  0  0  0  0  0  0  0  0
   -1.0566    1.7601    2.6330 C   0  0  0  0  0  0  0  0  0  0  0  0
    0.0475    1.3482    1.9457 C   0  0  0  0  0  0  0  0  0  0  0  0
    1.1414    1.3489    2.7475 O   0  0  0  0  0  0  0  0  0  0  0  0
    1.2165    1.5342    6.3313 O   0  0  0  0  0  0  0  0  0  0  0  0
    0.9146    0.1796    6.6491 C   0  0  0  0  0  0  0  0  0  0  0  0
    2.1683   -0.7164    6.4844 C   0  0  2  0  0  0  0  0  0  0  0  0
    3.2171   -0.2263    7.5164 C   0  0  0  0  0  0  0  0  0  0  0  0
    1.8227   -2.2414    6.7236 C   0  0  2  0  0  0  0  0  0  0  0  0
    3.0438   -3.1630    6.9513 C   0  0  0  0  0  0  0  0  0  0  0  0
    3.8596   -3.5279    5.6833 C   0  0  0  0  0  0  0  0  0  0  0  0
    3.1370   -3.4877    4.2911 C   0  0  1  0  0  0  0  0  0  0  0  0
    3.2282   -4.7461    3.3667 C   0  0  1  0  0  0  0  0  0  0  0  0
    3.0692   -4.2903    1.9081 C   0  0  0  0  0  0  0  0  0  0  0  0
    4.4380   -4.5834    1.2752 C   0  0  1  0  0  0  0  0  0  0  0  0
    4.4083   -4.9989   -0.2023 C   0  0  0  0  0  0  0  0  0  0  0  0
    5.2589   -3.4421    1.4050 O   0  0  0  0  0  0  0  0  0  0  0  0
    4.9279   -5.6560    2.0155 O   0  0  0  0  0  0  0  0  0  0  0  0
    4.5740   -5.4692    3.3858 C   0  0  2  0  0  0  0  0  0  0  0  0
    4.0101   -6.6262    4.0372 O   0  0  0  0  0  0  0  0  0  0  0  0
    2.6618   -6.1573    3.7720 C   0  0  1  0  0  0  0  0  0  0  0  0
    2.1803   -7.0812    2.6434 C   0  0  0  0  0  0  0  0  0  0  0  0
    0.8597   -9.5892    2.1494 H   0  0  0  0  0  0  0  0  0  0  0  0
   -0.1688  -10.8286    2.8505 H   0  0  0  0  0  0  0  0  0  0  0  0
    1.5324  -11.1885    2.5071 H   0  0  0  0  0  0  0  0  0  0  0  0
    2.8120  -11.2848    4.8985 H   0  0  0  0  0  0  0  0  0  0  0  0
    2.4224  -10.2617    7.2794 H   0  0  0  0  0  0  0  0  0  0  0  0
   -0.0400  -10.6283    6.3524 H   0  0  0  0  0  0  0  0  0  0  0  0
    0.0086   -9.1182    7.2332 H   0  0  0  0  0  0  0  0  0  0  0  0
   -0.6001   -8.7221    4.6388 H   0  0  0  0  0  0  0  0  0  0  0  0
    0.5954   -7.3641    6.2957 H   0  0  0  0  0  0  0  0  0  0  0  0
    3.2852   -8.4217    5.3749 H   0  0  0  0  0  0  0  0  0  0  0  0
    2.4564   -7.9865    9.0121 H   0  0  0  0  0  0  0  0  0  0  0  0
    1.0796   -7.1318    8.3410 H   0  0  0  0  0  0  0  0  0  0  0  0
    2.4450   -6.2304    8.9618 H   0  0  0  0  0  0  0  0  0  0  0  0
    4.7690   -7.9056    7.8305 H   0  0  0  0  0  0  0  0  0  0  0  0
    4.6555   -6.1506    7.7949 H   0  0  0  0  0  0  0  0  0  0  0  0
    4.9466   -7.0406    6.3124 H   0  0  0  0  0  0  0  0  0  0  0  0
    0.3707   -5.0627    3.8295 H   0  0  0  0  0  0  0  0  0  0  0  0
   -0.4441   -6.0337    4.9439 H   0  0  0  0  0  0  0  0  0  0  0  0
   -0.8266   -3.9576    5.6752 H   0  0  0  0  0  0  0  0  0  0  0  0
    1.0597   -4.9647    7.3813 H   0  0  0  0  0  0  0  0  0  0  0  0
    0.1265   -2.1805    5.4556 H   0  0  0  0  0  0  0  0  0  0  0  0
    1.1625   -3.1279    3.4463 H   0  0  0  0  0  0  0  0  0  0  0  0
    2.4441   -1.1139    2.9950 H   0  0  0  0  0  0  0  0  0  0  0  0
    0.9450   -0.8486    3.8356 H   0  0  0  0  0  0  0  0  0  0  0  0
    3.7429   -0.8495    5.0270 H   0  0  0  0  0  0  0  0  0  0  0  0
    2.1686    2.7668    5.0679 H   0  0  0  0  0  0  0  0  0  0  0  0
   -1.1969    2.3716    4.8026 H   0  0  0  0  0  0  0  0  0  0  0  0
   -2.0471    1.8805    2.2199 H   0  0  0  0  0  0  0  0  0  0  0  0
    0.2202    1.0619    0.9170 H   0  0  0  0  0  0  0  0  0  0  0  0
    0.5619    0.1478    7.6811 H   0  0  0  0  0  0  0  0  0  0  0  0
    0.0796   -0.1412    6.0302 H   0  0  0  0  0  0  0  0  0  0  0  0
    2.9227   -0.4647    8.5397 H   0  0  0  0  0  0  0  0  0  0  0  0
    3.3598    0.8530    7.4646 H   0  0  0  0  0  0  0  0  0  0  0  0
    4.2010   -0.6621    7.3398 H   0  0  0  0  0  0  0  0  0  0  0  0
    1.2393   -2.2710    7.6461 H   0  0  0  0  0  0  0  0  0  0  0  0
    3.7125   -2.7659    7.7149 H   0  0  0  0  0  0  0  0  0  0  0  0
    2.6905   -4.0693    7.4343 H   0  0  0  0  0  0  0  0  0  0  0  0
    4.6998   -2.8328    5.6483 H   0  0  0  0  0  0  0  0  0  0  0  0
    4.3338   -4.4914    5.8619 H   0  0  0  0  0  0  0  0  0  0  0  0
    3.8029   -2.7949    3.7755 H   0  0  0  0  0  0  0  0  0  0  0  0
    2.3008   -4.8530    1.3828 H   0  0  0  0  0  0  0  0  0  0  0  0
    2.8097   -3.2399    1.7683 H   0  0  0  0  0  0  0  0  0  0  0  0
    5.4300   -5.1802   -0.5459 H   0  0  0  0  0  0  0  0  0  0  0  0
    3.9687   -4.2166   -0.8271 H   0  0  0  0  0  0  0  0  0  0  0  0
    3.8411   -5.9221   -0.3195 H   0  0  0  0  0  0  0  0  0  0  0  0
    4.8086   -2.7158    1.0032 H   0  0  0  0  0  0  0  0  0  0  0  0
    5.3558   -4.9756    3.9571 H   0  0  0  0  0  0  0  0  0  0  0  0
    1.1273   -6.9272    2.4075 H   0  0  0  0  0  0  0  0  0  0  0  0
    2.3340   -8.1169    2.9203 H   0  0  0  0  0  0  0  0  0  0  0  0
    2.7510   -6.9680    1.7219 H   0  0  0  0  0  0  0  0  0  0  0  0
  1  2  1  0
  1 46  1  0
  1 47  1  0
  1 48  1  0
  2  6  1  0
  2  3  2  0
  3  4  1  0
  3 49  1  0
  4  8  1  0
  4  5  1  0
  4 50  1  1
  5  6  1  0
  5 51  1  0
  5 52  1  0
  6  7  1  0
  6 53  1  6
  7 13  1  0
  7  8  1  0
  7 54  1  1
  8  9  1  0
  8 55  1  6
  9 10  1  0
  9 11  1  0
  9 12  1  0
 10 56  1  0
 10 57  1  0
 10 58  1  0
 11 59  1  0
 11 60  1  0
 11 61  1  0
 13 12  1  1
 13 44  1  0
 13 14  1  0
 14 15  1  0
 14 62  1  0
 14 63  1  0
 15 16  1  0
 15 17  1  0
 15 64  1  6
 16 65  1  0
 17 32  1  0
 17 18  1  0
 17 66  1  6
 18 35  1  0
 18 19  1  0
 18 67  1  6
 19 20  1  0
 19 68  1  0
 19 69  1  0
 20 30  1  0
 20 21  1  0
 20 70  1  1
 21 22  1  0
 22 23  1  0
 22 28  1  0
 22 71  1  1
 23 27  1  0
 23 24  2  0
 24 25  1  0
 24 72  1  0
 25 26  2  0
 25 73  1  0
 26 27  1  0
 26 74  1  0
 28 29  1  0
 29 30  1  0
 29 75  1  0
 29 76  1  0
 30 31  1  1
 30 32  1  0
 31 77  1  0
 31 78  1  0
 31 79  1  0
 32 33  1  0
 32 80  1  1
 33 34  1  0
 33 81  1  0
 33 82  1  0
 34 35  1  0
 34 83  1  0
 34 84  1  0
 35 36  1  0
 35 85  1  6
 36 42  1  0
 36 44  1  0
 36 37  1  6
 37 38  1  0
 37 86  1  0
 37 87  1  0
 38 39  1  0
 38 40  1  6
 38 41  1  0
 39 88  1  0
 39 89  1  0
 39 90  1  0
 40 91  1  0
 41 42  1  0
 42 43  1  0
 42 92  1  1
 43 44  1  0
 44 45  1  6
 45 93  1  0
 45 94  1  0
 45 95  1  0
M  END
>  <i_m_ct_stereo_status>  (14) 
1

>  <s_m_source_file>  (14) 
/var/tmp/pbs.5076255.sched01/tmpsofmo5yl/0au1p7r3z.sdf

>  <i_m_source_file_index>  (14) 
6

>  <i_lp_mmshare_version>  (14) 
48012

>  <i_f3d_flags>  (14) 
0

>  <s_epik_input>  (14) 
W0NIM11DKE8xKShbQ0gzXSlbQ0BIXTJbQ0BASF0oW0NIMl0zKVtDSF09QyhbQ0gzXSlbQ0BASF0zW0NAQEhdMltDQF0xNFtDQEBdNShbQ0gzXSlbQ0BdNihbQ0BASF0oTzUpT1tDQF0oW0NIMl02KShbQ0gzXSlbT0hdKVtDQEhdN1tDQEhdOFtDQEBIXShbQ0BASF0oW0NIMl00KVtPSF0pW0NAQEhdKFtDSDJdW0NIMl03KVtDQEBdOShbQ0gzXSlbQ0BASF0oW0NIMl04KU9bQ0BIXShPW0NIMl05KWMxW2NIXVtjSF1bY0hdbzE=

>  <s_epik_cmdline>  (14) 
J2VwaWtfcHl0aG9uJywgJy1waHQnLCAnMi4wJywgJy1waCcsICc3LjAnLCAnLXRuJywgJzgnLCAnLW1hJywgJzIwMCcsICctaW1hZScsICc8aW5maWxlLm1hZT4nLCAnLW9tYWUnLCAnPG91dGZpbGUubWFlPic=

>  <r_lp_tautomer_probability>  (14) 
1

>  <r_epik_Ionization_Penalty>  (14) 
4.4941e-07

>  <r_epik_Ionization_Penalty_Charging>  (14) 
0

>  <r_epik_Ionization_Penalty_Neutral>  (14) 
4.4941e-07

>  <r_epik_State_Penalty>  (14) 
-0

>  <r_epik_Charging_Adjusted_Penalty>  (14) 
0

>  <i_epik_Tot_Q>  (14) 
0

>  <i_epik_Tot_abs_Q>  (14) 
0

>  <s_epik_Chemistry_Notes>  (14) 
This compound contains an acetal/aminal-like group ( X-CH(R)-Y where X, Y are N, S, or O) that may be acid/base labile, releasing an aldehyde.

>  <s_lp_Force_Field>  (14) 
OPLS3e

>  <r_lp_Energy>  (14) 
141.46

>  <b_lp_Chiralities_Consistent>  (14) 
1

>  <s_lp_Variant>  (14) 
5:0-1

>  <s_i_glide_gridfile>  (14) 
pfpi4k_grid

>  <i_i_glide_lignum>  (14) 
6

>  <i_i_glide_rotatable_bonds>  (14) 
3

>  <r_i_docking_score>  (14) 
-2.19362

>  <r_i_glide_ligand_efficiency>  (14) 
-0.0487471

>  <r_i_glide_ligand_efficiency_sa>  (14) 
-0.173388

>  <r_i_glide_ligand_efficiency_ln>  (14) 
-0.456371

>  <r_i_glide_gscore>  (14) 
-2.19362

>  <r_i_glide_lipo>  (14) 
-0.15117

>  <r_i_glide_hbond>  (14) 
0

>  <r_i_glide_metal>  (14) 
-0

>  <r_i_glide_rewards>  (14) 
-0.536086

>  <r_i_glide_evdw>  (14) 
-25.6341

>  <r_i_glide_ecoul>  (14) 
-1.8525

>  <r_i_glide_erotb>  (14) 
0.054427

>  <r_i_glide_esite>  (14) 
-0.00121377

>  <r_i_glide_emodel>  (14) 
-35.4669

>  <r_i_glide_energy>  (14) 
-27.4865

>  <r_i_glide_einternal>  (14) 
1.76015

>  <r_i_glide_intrahb_reward>  (14) 
-0.5

>  <i_i_glide_confnum>  (14) 
1

>  <i_i_glide_posenum>  (14) 
31

>  <r_i_glide_eff_state_penalty>  (14) 
0

>  <ligand_id>  (14) 
5

>  <original_smiles>  (14) 
CC1=CC2CC1C1C2C(C)(C)OC12CC(O)C1C3CC4OC(c5ccco5)OCC4(C)C1CCC3C13CC(C)(O)OC1OC23C

>  <smiles>  (14) 
[H]OC1([H])C([H])([H])C2(OC(C([H])([H])[H])(C([H])([H])[H])C3([H])C4([H])C([H])=C(C([H])([H])[H])C([H])(C4([H])[H])C32[H])C2(C([H])([H])[H])OC3([H])OC(O[H])(C([H])([H])[H])C([H])([H])C32C2([H])C([H])([H])C([H])([H])C3([H])C1([H])C2([H])C([H])([H])C1([H])OC([H])(c2oc([H])c([H])c2[H])OC([H])([H])C13C([H])([H])[H]

$$$$
5:0:2
     RDKit          3D

 95104  0  0  1  0  0  0  0  0999 V2000
    6.0296  -11.7675    4.7635 C   0  0  0  0  0  0  0  0  0  0  0  0
    4.5524  -11.5082    4.5508 C   0  0  0  0  0  0  0  0  0  0  0  0
    3.5021  -12.2230    4.9746 C   0  0  0  0  0  0  0  0  0  0  0  0
    2.2465  -11.6032    4.3855 C   0  0  2  0  0  0  0  0  0  0  0  0
    2.8810  -11.2404    3.0240 C   0  0  0  0  0  0  0  0  0  0  0  0
    4.0389  -10.4030    3.6439 C   0  0  1  0  0  0  0  0  0  0  0  0
    3.0710   -9.3999    4.3464 C   0  0  1  0  0  0  0  0  0  0  0  0
    2.1168  -10.2457    5.1327 C   0  0  1  0  0  0  0  0  0  0  0  0
    0.9632   -9.2423    5.2253 C   0  0  0  0  0  0  0  0  0  0  0  0
    0.0014   -9.2098    4.0145 C   0  0  0  0  0  0  0  0  0  0  0  0
    0.1496   -9.4139    6.5203 C   0  0  0  0  0  0  0  0  0  0  0  0
    1.6968   -7.9791    5.2982 O   0  0  0  0  0  0  0  0  0  0  0  0
    3.1383   -8.0512    5.1015 C   0  0  2  0  0  0  0  0  0  0  0  0
    3.6501   -6.9407    4.1295 C   0  0  0  0  0  0  0  0  0  0  0  0
    2.6902   -5.8115    3.6561 C   0  0  1  0  0  0  0  0  0  0  0  0
    1.5292   -6.3307    3.0407 O   0  0  0  0  0  0  0  0  0  0  0  0
    2.4234   -4.5789    4.5862 C   0  0  2  0  0  0  0  0  0  0  0  0
    3.2745   -4.4860    5.8668 C   0  0  1  0  0  0  0  0  0  0  0  0
    3.2739   -3.0159    6.3226 C   0  0  0  0  0  0  0  0  0  0  0  0
    1.8613   -2.4814    6.6458 C   0  0  1  0  0  0  0  0  0  0  0  0
    1.8747   -1.1061    7.0389 O   0  0  0  0  0  0  0  0  0  0  0  0
    1.9052   -0.1319    6.0329 C   0  0  1  0  0  0  0  0  0  0  0  0
    3.3032    0.0814    5.5202 C   0  0  0  0  0  0  0  0  0  0  0  0
    3.8188    0.5435    4.3401 C   0  0  0  0  0  0  0  0  0  0  0  0
    5.2373    0.5265    4.4842 C   0  0  0  0  0  0  0  0  0  0  0  0
    5.4800    0.0860    5.7543 C   0  0  0  0  0  0  0  0  0  0  0  0
    4.3151   -0.1622    6.4062 O   0  0  0  0  0  0  0  0  0  0  0  0
    1.0043   -0.3683    4.9881 O   0  0  0  0  0  0  0  0  0  0  0  0
    1.0371   -1.6772    4.4281 C   0  0  0  0  0  0  0  0  0  0  0  0
    0.8176   -2.7437    5.5312 C   0  0  2  0  0  0  0  0  0  0  0  0
   -0.6036   -2.5146    6.1063 C   0  0  0  0  0  0  0  0  0  0  0  0
    0.9565   -4.2085    4.9509 C   0  0  2  0  0  0  0  0  0  0  0  0
    0.3945   -5.3299    5.8560 C   0  0  0  0  0  0  0  0  0  0  0  0
    1.2703   -5.7110    7.0783 C   0  0  0  0  0  0  0  0  0  0  0  0
    2.8143   -5.4361    7.0090 C   0  0  1  0  0  0  0  0  0  0  0  0
    3.7954   -6.6088    7.3349 C   0  0  1  0  0  0  0  0  0  0  0  0
    5.1113   -6.0108    7.8528 C   0  0  0  0  0  0  0  0  0  0  0  0
    5.1784   -6.4678    9.3176 C   0  0  1  0  0  0  0  0  0  0  0  0
    6.5904   -6.7371    9.8621 C   0  0  0  0  0  0  0  0  0  0  0  0
    4.5558   -5.4942   10.1289 O   0  0  0  0  0  0  0  0  0  0  0  0
    4.4691   -7.6651    9.3318 O   0  0  0  0  0  0  0  0  0  0  0  0
    3.3461   -7.5398    8.4602 C   0  0  2  0  0  0  0  0  0  0  0  0
    3.1493   -8.6420    7.5528 O   0  0  0  0  0  0  0  0  0  0  0  0
    3.8586   -7.9410    6.4986 C   0  0  1  0  0  0  0  0  0  0  0  0
    5.2044   -8.6756    6.4308 C   0  0  0  0  0  0  0  0  0  0  0  0
    6.5379  -10.8892    5.1621 H   0  0  0  0  0  0  0  0  0  0  0  0
    6.4940  -12.0128    3.8074 H   0  0  0  0  0  0  0  0  0  0  0  0
    6.1849  -12.6037    5.4472 H   0  0  0  0  0  0  0  0  0  0  0  0
    3.5091  -13.0919    5.6137 H   0  0  0  0  0  0  0  0  0  0  0  0
    1.3774  -12.2586    4.3715 H   0  0  0  0  0  0  0  0  0  0  0  0
    3.2379  -12.1236    2.4864 H   0  0  0  0  0  0  0  0  0  0  0  0
    2.2109  -10.7145    2.3418 H   0  0  0  0  0  0  0  0  0  0  0  0
    4.7430  -10.0111    2.9109 H   0  0  0  0  0  0  0  0  0  0  0  0
    2.5738   -9.0141    3.4543 H   0  0  0  0  0  0  0  0  0  0  0  0
    2.4794  -10.4138    6.1456 H   0  0  0  0  0  0  0  0  0  0  0  0
   -0.5351  -10.1529    3.9204 H   0  0  0  0  0  0  0  0  0  0  0  0
    0.4953   -9.0326    3.0608 H   0  0  0  0  0  0  0  0  0  0  0  0
   -0.7456   -8.4250    4.1400 H   0  0  0  0  0  0  0  0  0  0  0  0
   -0.3937  -10.3575    6.5215 H   0  0  0  0  0  0  0  0  0  0  0  0
   -0.5832   -8.6179    6.6238 H   0  0  0  0  0  0  0  0  0  0  0  0
    0.7779   -9.4001    7.4095 H   0  0  0  0  0  0  0  0  0  0  0  0
    4.5649   -6.5037    4.5269 H   0  0  0  0  0  0  0  0  0  0  0  0
    4.0200   -7.4239    3.2233 H   0  0  0  0  0  0  0  0  0  0  0  0
    3.2261   -5.3840    2.8060 H   0  0  0  0  0  0  0  0  0  0  0  0
    1.1462   -6.9463    3.6553 H   0  0  0  0  0  0  0  0  0  0  0  0
    2.7716   -3.7685    3.9520 H   0  0  0  0  0  0  0  0  0  0  0  0
    4.3150   -4.6953    5.6179 H   0  0  0  0  0  0  0  0  0  0  0  0
    3.9234   -2.8801    7.1889 H   0  0  0  0  0  0  0  0  0  0  0  0
    3.7270   -2.4426    5.5181 H   0  0  0  0  0  0  0  0  0  0  0  0
    1.5303   -3.0030    7.5428 H   0  0  0  0  0  0  0  0  0  0  0  0
    1.5982    0.8018    6.5008 H   0  0  0  0  0  0  0  0  0  0  0  0
    3.2407    0.8486    3.4793 H   0  0  0  0  0  0  0  0  0  0  0  0
    5.9875    0.8034    3.7612 H   0  0  0  0  0  0  0  0  0  0  0  0
    6.3824   -0.0931    6.3188 H   0  0  0  0  0  0  0  0  0  0  0  0
    0.2495   -1.7422    3.6757 H   0  0  0  0  0  0  0  0  0  0  0  0
    1.9777   -1.8030    3.8962 H   0  0  0  0  0  0  0  0  0  0  0  0
   -1.3756   -2.7753    5.3833 H   0  0  0  0  0  0  0  0  0  0  0  0
   -0.7625   -1.4720    6.3780 H   0  0  0  0  0  0  0  0  0  0  0  0
   -0.7746   -3.0925    7.0147 H   0  0  0  0  0  0  0  0  0  0  0  0
    0.3596   -4.2211    4.0370 H   0  0  0  0  0  0  0  0  0  0  0  0
   -0.6215   -5.1142    6.1854 H   0  0  0  0  0  0  0  0  0  0  0  0
    0.2315   -6.2054    5.2345 H   0  0  0  0  0  0  0  0  0  0  0  0
    0.8684   -5.1601    7.9297 H   0  0  0  0  0  0  0  0  0  0  0  0
    1.0597   -6.7506    7.3237 H   0  0  0  0  0  0  0  0  0  0  0  0
    2.9174   -4.8175    7.9013 H   0  0  0  0  0  0  0  0  0  0  0  0
    5.9758   -6.3931    7.3154 H   0  0  0  0  0  0  0  0  0  0  0  0
    5.1908   -4.9236    7.7991 H   0  0  0  0  0  0  0  0  0  0  0  0
    6.5244   -7.0536   10.9050 H   0  0  0  0  0  0  0  0  0  0  0  0
    7.2131   -5.8397    9.8092 H   0  0  0  0  0  0  0  0  0  0  0  0
    7.0695   -7.5373    9.2993 H   0  0  0  0  0  0  0  0  0  0  0  0
    4.6354   -5.7608   11.0316 H   0  0  0  0  0  0  0  0  0  0  0  0
    2.4451   -7.2289    8.9820 H   0  0  0  0  0  0  0  0  0  0  0  0
    5.8164   -8.3335    5.5960 H   0  0  0  0  0  0  0  0  0  0  0  0
    5.0406   -9.7424    6.3394 H   0  0  0  0  0  0  0  0  0  0  0  0
    5.7947   -8.5762    7.3417 H   0  0  0  0  0  0  0  0  0  0  0  0
  1  2  1  0
  1 46  1  0
  1 47  1  0
  1 48  1  0
  2  6  1  0
  2  3  2  0
  3  4  1  0
  3 49  1  0
  4  8  1  0
  4  5  1  0
  4 50  1  6
  5  6  1  0
  5 51  1  0
  5 52  1  0
  6  7  1  0
  6 53  1  6
  7 13  1  0
  7  8  1  0
  7 54  1  6
  8  9  1  0
  8 55  1  1
  9 10  1  0
  9 11  1  0
  9 12  1  0
 10 56  1  0
 10 57  1  0
 10 58  1  0
 11 59  1  0
 11 60  1  0
 11 61  1  0
 13 12  1  1
 13 44  1  0
 13 14  1  0
 14 15  1  0
 14 62  1  0
 14 63  1  0
 15 16  1  0
 15 17  1  0
 15 64  1  6
 16 65  1  0
 17 32  1  0
 17 18  1  0
 17 66  1  6
 18 35  1  0
 18 19  1  0
 18 67  1  6
 19 20  1  0
 19 68  1  0
 19 69  1  0
 20 30  1  0
 20 21  1  0
 20 70  1  1
 21 22  1  0
 22 23  1  0
 22 28  1  0
 22 71  1  1
 23 27  1  0
 23 24  2  0
 24 25  1  0
 24 72  1  0
 25 26  2  0
 25 73  1  0
 26 27  1  0
 26 74  1  0
 28 29  1  0
 29 30  1  0
 29 75  1  0
 29 76  1  0
 30 31  1  1
 30 32  1  0
 31 77  1  0
 31 78  1  0
 31 79  1  0
 32 33  1  0
 32 80  1  6
 33 34  1  0
 33 81  1  0
 33 82  1  0
 34 35  1  0
 34 83  1  0
 34 84  1  0
 35 36  1  0
 35 85  1  1
 36 42  1  0
 36 44  1  0
 36 37  1  1
 37 38  1  0
 37 86  1  0
 37 87  1  0
 38 39  1  0
 38 40  1  1
 38 41  1  0
 39 88  1  0
 39 89  1  0
 39 90  1  0
 40 91  1  0
 41 42  1  0
 42 43  1  0
 42 92  1  1
 43 44  1  0
 44 45  1  6
 45 93  1  0
 45 94  1  0
 45 95  1  0
M  END
>  <i_m_ct_stereo_status>  (15) 
1

>  <s_m_source_file>  (15) 
/var/tmp/pbs.5076255.sched01/tmpsofmo5yl/0au1p7r3z.sdf

>  <i_m_source_file_index>  (15) 
6

>  <i_lp_mmshare_version>  (15) 
48012

>  <i_f3d_flags>  (15) 
0

>  <s_epik_input>  (15) 
W0NIM11DKE8xKShbQ0gzXSlbQ0BIXTJbQ0BASF0oW0NIMl0zKVtDSF09QyhbQ0gzXSlbQ0BASF0zW0NAQEhdMltDQF0xNFtDQEBdNShbQ0gzXSlbQ0BdNihbQ0BASF0oTzUpT1tDQF0oW0NIMl02KShbQ0gzXSlbT0hdKVtDQEhdN1tDQEhdOFtDQEBIXShbQ0BASF0oW0NIMl00KVtPSF0pW0NAQEhdKFtDSDJdW0NIMl03KVtDQEBdOShbQ0gzXSlbQ0BASF0oW0NIMl04KU9bQ0BIXShPW0NIMl05KWMxW2NIXVtjSF1bY0hdbzE=

>  <s_epik_cmdline>  (15) 
J2VwaWtfcHl0aG9uJywgJy1waHQnLCAnMi4wJywgJy1waCcsICc3LjAnLCAnLXRuJywgJzgnLCAnLW1hJywgJzIwMCcsICctaW1hZScsICc8aW5maWxlLm1hZT4nLCAnLW9tYWUnLCAnPG91dGZpbGUubWFlPic=

>  <r_lp_tautomer_probability>  (15) 
1

>  <r_epik_Ionization_Penalty>  (15) 
4.4941e-07

>  <r_epik_Ionization_Penalty_Charging>  (15) 
0

>  <r_epik_Ionization_Penalty_Neutral>  (15) 
4.4941e-07

>  <r_epik_State_Penalty>  (15) 
-0

>  <r_epik_Charging_Adjusted_Penalty>  (15) 
0

>  <i_epik_Tot_Q>  (15) 
0

>  <i_epik_Tot_abs_Q>  (15) 
0

>  <s_epik_Chemistry_Notes>  (15) 
This compound contains an acetal/aminal-like group ( X-CH(R)-Y where X, Y are N, S, or O) that may be acid/base labile, releasing an aldehyde.

>  <s_lp_Force_Field>  (15) 
OPLS3e

>  <r_lp_Energy>  (15) 
141.46

>  <b_lp_Chiralities_Consistent>  (15) 
1

>  <s_lp_Variant>  (15) 
5:0-1

>  <s_i_glide_gridfile>  (15) 
pfpi4k_grid

>  <i_i_glide_lignum>  (15) 
6

>  <i_i_glide_rotatable_bonds>  (15) 
3

>  <r_i_docking_score>  (15) 
-1.71304

>  <r_i_glide_ligand_efficiency>  (15) 
-0.0380676

>  <r_i_glide_ligand_efficiency_sa>  (15) 
-0.135402

>  <r_i_glide_ligand_efficiency_ln>  (15) 
-0.356389

>  <r_i_glide_gscore>  (15) 
-1.71304

>  <r_i_glide_lipo>  (15) 
-0.15823

>  <r_i_glide_hbond>  (15) 
0

>  <r_i_glide_metal>  (15) 
-0

>  <r_i_glide_rewards>  (15) 
-0.5

>  <r_i_glide_evdw>  (15) 
-20.2642

>  <r_i_glide_ecoul>  (15) 
-0.636567

>  <r_i_glide_erotb>  (15) 
0.054427

>  <r_i_glide_esite>  (15) 
-0.000541558

>  <r_i_glide_emodel>  (15) 
-28.6798

>  <r_i_glide_energy>  (15) 
-20.9008

>  <r_i_glide_einternal>  (15) 
0.329373

>  <r_i_glide_intrahb_reward>  (15) 
-0.5

>  <i_i_glide_confnum>  (15) 
1

>  <i_i_glide_posenum>  (15) 
12

>  <r_i_glide_eff_state_penalty>  (15) 
0

>  <ligand_id>  (15) 
5

>  <original_smiles>  (15) 
CC1=CC2CC1C1C2C(C)(C)OC12CC(O)C1C3CC4OC(c5ccco5)OCC4(C)C1CCC3C13CC(C)(O)OC1OC23C

>  <smiles>  (15) 
[H]OC1([H])C([H])([H])C2(OC(C([H])([H])[H])(C([H])([H])[H])C3([H])C4([H])C([H])=C(C([H])([H])[H])C([H])(C4([H])[H])C32[H])C2(C([H])([H])[H])OC3([H])OC(O[H])(C([H])([H])[H])C([H])([H])C32C2([H])C([H])([H])C([H])([H])C3([H])C1([H])C2([H])C([H])([H])C1([H])OC([H])(c2oc([H])c([H])c2[H])OC([H])([H])C13C([H])([H])[H]

$$$$
6:0:0
     RDKit          3D

 23 25  0  0  1  0  0  0  0  0999 V2000
   -9.7417   -3.2943   -5.7173 C   0  0  0  0  0  0  0  0  0  0  0  0
   -9.1327   -4.3798   -6.5744 C   0  0  1  0  0  0  0  0  0  0  0  0
   -8.8746   -4.0778   -8.0404 C   0  0  0  0  0  0  0  0  0  0  0  0
   -9.2617   -5.5331   -8.3015 C   0  0  1  0  0  0  0  0  0  0  0  0
   -8.1858   -6.6185   -8.0049 C   0  0  0  0  0  0  0  0  0  0  0  0
   -7.6059   -6.2285   -6.6834 C   0  0  0  0  0  0  0  0  0  0  0  0
   -6.6308   -6.8925   -6.0286 O   0  0  0  0  0  0  0  0  0  0  0  0
   -6.4859   -6.2095   -4.8380 C   0  0  0  0  0  0  0  0  0  0  0  0
   -7.3405   -5.1352   -4.7183 C   0  0  0  0  0  0  0  0  0  0  0  0
   -8.0270   -5.1968   -5.9562 C   0  0  0  0  0  0  0  0  0  0  0  0
  -10.1340   -5.3114   -7.1287 N   0  0  0  0  0  0  0  0  0  0  0  0
   -8.9978   -2.5313   -5.5099 H   0  0  0  0  0  0  0  0  0  0  0  0
  -10.1502   -3.6545   -4.7727 H   0  0  0  0  0  0  0  0  0  0  0  0
  -10.5376   -2.7793   -6.2569 H   0  0  0  0  0  0  0  0  0  0  0  0
   -9.5722   -3.2996   -8.3464 H   0  0  0  0  0  0  0  0  0  0  0  0
   -7.8323   -3.8558   -8.2525 H   0  0  0  0  0  0  0  0  0  0  0  0
   -9.8212   -5.6620   -9.2220 H   0  0  0  0  0  0  0  0  0  0  0  0
   -8.5693   -7.6318   -7.9740 H   0  0  0  0  0  0  0  0  0  0  0  0
   -7.4061   -6.5793   -8.7524 H   0  0  0  0  0  0  0  0  0  0  0  0
   -5.7539   -6.6374   -4.1828 H   0  0  0  0  0  0  0  0  0  0  0  0
   -7.4526   -4.4723   -3.8672 H   0  0  0  0  0  0  0  0  0  0  0  0
  -10.2178   -6.1267   -6.5706 H   0  0  0  0  0  0  0  0  0  0  0  0
  -11.0007   -4.8654   -7.3838 H   0  0  0  0  0  0  0  0  0  0  0  0
  2  1  1  1
  1 12  1  0
  1 13  1  0
  1 14  1  0
  2 10  1  0
  2 11  1  0
  2  3  1  0
  3  4  1  0
  3 15  1  0
  3 16  1  0
  4  5  1  0
  4 11  1  0
  4 17  1  6
  5  6  1  0
  5 18  1  0
  5 19  1  0
  6 10  2  0
  6  7  1  0
  7  8  1  0
  8  9  2  0
  8 20  1  0
  9 10  1  0
  9 21  1  0
 11 22  1  0
 11 23  1  0
M  CHG  1  11   1
M  END
>  <i_m_ct_stereo_status>  (16) 
1

>  <s_m_source_file>  (16) 
/var/tmp/pbs.5076255.sched01/tmpsofmo5yl/0au1p7r3z.sdf

>  <i_m_source_file_index>  (16) 
7

>  <i_lp_mmshare_version>  (16) 
48012

>  <i_f3d_flags>  (16) 
0

>  <s_epik_input>  (16) 
W0NIM11bQ0BdMTJjM2MoW0NIMl1bQ0BIXShbQ0gyXTEpW05IXTIpb1tjSF1bY0hdMw==

>  <s_epik_cmdline>  (16) 
J2VwaWtfcHl0aG9uJywgJy1waHQnLCAnMi4wJywgJy1waCcsICc3LjAnLCAnLXRuJywgJzgnLCAnLW1hJywgJzIwMCcsICctaW1hZScsICc8aW5maWxlLm1hZT4nLCAnLW9tYWUnLCAnPG91dGZpbGUubWFlPic=

>  <r_lp_tautomer_probability>  (16) 
1

>  <r_epik_Ionization_Penalty>  (16) 
0.000144962

>  <r_epik_Ionization_Penalty_Charging>  (16) 
0.000144962

>  <r_epik_Ionization_Penalty_Neutral>  (16) 
0

>  <r_epik_State_Penalty>  (16) 
-0

>  <r_epik_Charging_Adjusted_Penalty>  (16) 
0.000144962

>  <i_epik_Tot_Q>  (16) 
1

>  <i_epik_Tot_abs_Q>  (16) 
1

>  <s_lp_Force_Field>  (16) 
OPLS3e

>  <r_lp_Energy>  (16) 
23.7367

>  <b_lp_Chiralities_Consistent>  (16) 
1

>  <s_lp_Variant>  (16) 
6:0-1

>  <s_i_glide_gridfile>  (16) 
pfpi4k_grid

>  <i_i_glide_lignum>  (16) 
7

>  <i_i_glide_rotatable_bonds>  (16) 
0

>  <r_i_docking_score>  (16) 
-5.56529

>  <r_i_glide_ligand_efficiency>  (16) 
-0.505935

>  <r_i_glide_ligand_efficiency_sa>  (16) 
-1.12519

>  <r_i_glide_ligand_efficiency_ln>  (16) 
-1.63786

>  <r_i_glide_gscore>  (16) 
-5.56529

>  <r_i_glide_lipo>  (16) 
-2.06619

>  <r_i_glide_hbond>  (16) 
0

>  <r_i_glide_metal>  (16) 
-0

>  <r_i_glide_rewards>  (16) 
-2.83333

>  <r_i_glide_evdw>  (16) 
-16.2969

>  <r_i_glide_ecoul>  (16) 
0.993874

>  <r_i_glide_erotb>  (16) 
0

>  <r_i_glide_esite>  (16) 
0

>  <r_i_glide_emodel>  (16) 
-24.885

>  <r_i_glide_energy>  (16) 
-15.3031

>  <r_i_glide_einternal>  (16) 
0

>  <r_i_glide_intrahb_reward>  (16) 
-0

>  <i_i_glide_confnum>  (16) 
1

>  <i_i_glide_posenum>  (16) 
15

>  <r_i_glide_eff_state_penalty>  (16) 
0

>  <ligand_id>  (16) 
6

>  <original_smiles>  (16) 
CC12CC(Cc3occc31)N2

>  <smiles>  (16) 
[H]c1oc2c(c1[H])C1(C([H])([H])[H])C([H])([H])C([H])(C2([H])[H])[N+]1([H])[H]

$$$$
6:0:1
     RDKit          3D

 23 25  0  0  1  0  0  0  0  0999 V2000
   -6.7060   -4.0819   -4.3453 C   0  0  0  0  0  0  0  0  0  0  0  0
   -7.1385   -5.2265   -5.2612 C   0  0  1  0  0  0  0  0  0  0  0  0
   -7.4940   -4.9126   -6.7054 C   0  0  0  0  0  0  0  0  0  0  0  0
   -8.5281   -6.0315   -6.6044 C   0  0  1  0  0  0  0  0  0  0  0  0
   -7.9230   -7.4804   -6.8068 C   0  0  0  0  0  0  0  0  0  0  0  0
   -6.7110   -7.5284   -5.9344 C   0  0  0  0  0  0  0  0  0  0  0  0
   -5.9093   -8.6096   -5.7504 O   0  0  0  0  0  0  0  0  0  0  0  0
   -4.9749   -8.1680   -4.8355 C   0  0  0  0  0  0  0  0  0  0  0  0
   -5.1659   -6.8581   -4.4823 C   0  0  0  0  0  0  0  0  0  0  0  0
   -6.3234   -6.4921   -5.1822 C   0  0  0  0  0  0  0  0  0  0  0  0
   -8.5560   -5.6206   -5.1691 N   0  0  0  0  0  0  0  0  0  0  0  0
   -5.6932   -3.7322   -4.5865 H   0  0  0  0  0  0  0  0  0  0  0  0
   -6.7386   -4.3437   -3.2797 H   0  0  0  0  0  0  0  0  0  0  0  0
   -7.3722   -3.2381   -4.5225 H   0  0  0  0  0  0  0  0  0  0  0  0
   -7.8863   -3.9089   -6.8976 H   0  0  0  0  0  0  0  0  0  0  0  0
   -6.7090   -5.2735   -7.3354 H   0  0  0  0  0  0  0  0  0  0  0  0
   -9.4696   -5.8294   -7.1378 H   0  0  0  0  0  0  0  0  0  0  0  0
   -8.5876   -8.2971   -6.5404 H   0  0  0  0  0  0  0  0  0  0  0  0
   -7.6321   -7.6276   -7.8525 H   0  0  0  0  0  0  0  0  0  0  0  0
   -4.2543   -8.9365   -4.5571 H   0  0  0  0  0  0  0  0  0  0  0  0
   -4.6236   -6.2219   -3.8181 H   0  0  0  0  0  0  0  0  0  0  0  0
   -8.6781   -6.4204   -4.5486 H   0  0  0  0  0  0  0  0  0  0  0  0
   -9.1661   -4.8182   -5.0125 H   0  0  0  0  0  0  0  0  0  0  0  0
  2  1  1  1
  1 12  1  0
  1 13  1  0
  1 14  1  0
  2 10  1  0
  2 11  1  0
  2  3  1  0
  3  4  1  0
  3 15  1  0
  3 16  1  0
  4  5  1  0
  4 11  1  0
  4 17  1  6
  5  6  1  0
  5 18  1  0
  5 19  1  0
  6 10  2  0
  6  7  1  0
  7  8  1  0
  8  9  2  0
  8 20  1  0
  9 10  1  0
  9 21  1  0
 11 22  1  0
 11 23  1  0
M  CHG  1  11   1
M  END
>  <i_m_ct_stereo_status>  (17) 
1

>  <s_m_source_file>  (17) 
/var/tmp/pbs.5076255.sched01/tmpsofmo5yl/0au1p7r3z.sdf

>  <i_m_source_file_index>  (17) 
7

>  <i_lp_mmshare_version>  (17) 
48012

>  <i_f3d_flags>  (17) 
0

>  <s_epik_input>  (17) 
W0NIM11bQ0BdMTJjM2MoW0NIMl1bQ0BIXShbQ0gyXTEpW05IXTIpb1tjSF1bY0hdMw==

>  <s_epik_cmdline>  (17) 
J2VwaWtfcHl0aG9uJywgJy1waHQnLCAnMi4wJywgJy1waCcsICc3LjAnLCAnLXRuJywgJzgnLCAnLW1hJywgJzIwMCcsICctaW1hZScsICc8aW5maWxlLm1hZT4nLCAnLW9tYWUnLCAnPG91dGZpbGUubWFlPic=

>  <r_lp_tautomer_probability>  (17) 
1

>  <r_epik_Ionization_Penalty>  (17) 
0.000144962

>  <r_epik_Ionization_Penalty_Charging>  (17) 
0.000144962

>  <r_epik_Ionization_Penalty_Neutral>  (17) 
0

>  <r_epik_State_Penalty>  (17) 
-0

>  <r_epik_Charging_Adjusted_Penalty>  (17) 
0.000144962

>  <i_epik_Tot_Q>  (17) 
1

>  <i_epik_Tot_abs_Q>  (17) 
1

>  <s_lp_Force_Field>  (17) 
OPLS3e

>  <r_lp_Energy>  (17) 
23.7367

>  <b_lp_Chiralities_Consistent>  (17) 
1

>  <s_lp_Variant>  (17) 
6:0-1

>  <s_i_glide_gridfile>  (17) 
pfpi4k_grid

>  <i_i_glide_lignum>  (17) 
7

>  <i_i_glide_rotatable_bonds>  (17) 
0

>  <r_i_docking_score>  (17) 
-4.74048

>  <r_i_glide_ligand_efficiency>  (17) 
-0.430953

>  <r_i_glide_ligand_efficiency_sa>  (17) 
-0.958431

>  <r_i_glide_ligand_efficiency_ln>  (17) 
-1.39512

>  <r_i_glide_gscore>  (17) 
-4.74048

>  <r_i_glide_lipo>  (17) 
-2.10853

>  <r_i_glide_hbond>  (17) 
0

>  <r_i_glide_metal>  (17) 
-0

>  <r_i_glide_rewards>  (17) 
-2.475

>  <r_i_glide_evdw>  (17) 
-1.05316

>  <r_i_glide_ecoul>  (17) 
-0.695269

>  <r_i_glide_erotb>  (17) 
0

>  <r_i_glide_esite>  (17) 
0

>  <r_i_glide_emodel>  (17) 
-9.58666

>  <r_i_glide_energy>  (17) 
-1.74843

>  <r_i_glide_einternal>  (17) 
0

>  <r_i_glide_intrahb_reward>  (17) 
-0

>  <i_i_glide_confnum>  (17) 
1

>  <i_i_glide_posenum>  (17) 
9

>  <r_i_glide_eff_state_penalty>  (17) 
0

>  <ligand_id>  (17) 
6

>  <original_smiles>  (17) 
CC12CC(Cc3occc31)N2

>  <smiles>  (17) 
[H]c1oc2c(c1[H])C1(C([H])([H])[H])C([H])([H])C([H])(C2([H])[H])[N+]1([H])[H]

$$$$
6:0:2
     RDKit          3D

 23 25  0  0  1  0  0  0  0  0999 V2000
    1.8787    4.1360    4.9385 C   0  0  0  0  0  0  0  0  0  0  0  0
    1.3389    3.1336    3.9155 C   0  0  1  0  0  0  0  0  0  0  0  0
    2.0550    1.7804    3.8061 C   0  0  0  0  0  0  0  0  0  0  0  0
    1.7082    1.8604    2.3110 C   0  0  1  0  0  0  0  0  0  0  0  0
    0.2534    1.4735    1.9031 C   0  0  0  0  0  0  0  0  0  0  0  0
   -0.6250    2.1765    2.8908 C   0  0  0  0  0  0  0  0  0  0  0  0
   -1.9727    2.1587    2.8901 O   0  0  0  0  0  0  0  0  0  0  0  0
   -2.3423    3.0075    3.9051 C   0  0  0  0  0  0  0  0  0  0  0  0
   -1.2600    3.5874    4.5355 C   0  0  0  0  0  0  0  0  0  0  0  0
   -0.1697    2.9993    3.8538 C   0  0  0  0  0  0  0  0  0  0  0  0
    1.8184    3.3219    2.5249 N   0  0  0  0  0  0  0  0  0  0  0  0
    1.6208    3.8216    5.9517 H   0  0  0  0  0  0  0  0  0  0  0  0
    1.5002    5.1511    4.7851 H   0  0  0  0  0  0  0  0  0  0  0  0
    2.9719    4.1732    4.8998 H   0  0  0  0  0  0  0  0  0  0  0  0
    3.1286    1.8088    4.0214 H   0  0  0  0  0  0  0  0  0  0  0  0
    1.5367    0.9731    4.3323 H   0  0  0  0  0  0  0  0  0  0  0  0
    2.4987    1.4653    1.6702 H   0  0  0  0  0  0  0  0  0  0  0  0
    0.0108    1.7657    0.8846 H   0  0  0  0  0  0  0  0  0  0  0  0
    0.1148    0.3999    1.9767 H   0  0  0  0  0  0  0  0  0  0  0  0
   -3.4081    3.0841    4.0332 H   0  0  0  0  0  0  0  0  0  0  0  0
   -1.2769    4.3021    5.3436 H   0  0  0  0  0  0  0  0  0  0  0  0
    1.1573    3.8267    1.9208 H   0  0  0  0  0  0  0  0  0  0  0  0
    2.7740    3.6330    2.4906 H   0  0  0  0  0  0  0  0  0  0  0  0
  2  1  1  1
  1 12  1  0
  1 13  1  0
  1 14  1  0
  2 10  1  0
  2 11  1  0
  2  3  1  0
  3  4  1  0
  3 15  1  0
  3 16  1  0
  4  5  1  0
  4 11  1  0
  4 17  1  6
  5  6  1  0
  5 18  1  0
  5 19  1  0
  6 10  2  0
  6  7  1  0
  7  8  1  0
  8  9  2  0
  8 20  1  0
  9 10  1  0
  9 21  1  0
 11 22  1  0
 11 23  1  0
M  CHG  1  11   1
M  END
>  <i_m_ct_stereo_status>  (18) 
1

>  <s_m_source_file>  (18) 
/var/tmp/pbs.5076255.sched01/tmpsofmo5yl/0au1p7r3z.sdf

>  <i_m_source_file_index>  (18) 
7

>  <i_lp_mmshare_version>  (18) 
48012

>  <i_f3d_flags>  (18) 
0

>  <s_epik_input>  (18) 
W0NIM11bQ0BdMTJjM2MoW0NIMl1bQ0BIXShbQ0gyXTEpW05IXTIpb1tjSF1bY0hdMw==

>  <s_epik_cmdline>  (18) 
J2VwaWtfcHl0aG9uJywgJy1waHQnLCAnMi4wJywgJy1waCcsICc3LjAnLCAnLXRuJywgJzgnLCAnLW1hJywgJzIwMCcsICctaW1hZScsICc8aW5maWxlLm1hZT4nLCAnLW9tYWUnLCAnPG91dGZpbGUubWFlPic=

>  <r_lp_tautomer_probability>  (18) 
1

>  <r_epik_Ionization_Penalty>  (18) 
0.000144962

>  <r_epik_Ionization_Penalty_Charging>  (18) 
0.000144962

>  <r_epik_Ionization_Penalty_Neutral>  (18) 
0

>  <r_epik_State_Penalty>  (18) 
-0

>  <r_epik_Charging_Adjusted_Penalty>  (18) 
0.000144962

>  <i_epik_Tot_Q>  (18) 
1

>  <i_epik_Tot_abs_Q>  (18) 
1

>  <s_lp_Force_Field>  (18) 
OPLS3e

>  <r_lp_Energy>  (18) 
23.7367

>  <b_lp_Chiralities_Consistent>  (18) 
1

>  <s_lp_Variant>  (18) 
6:0-1

>  <s_i_glide_gridfile>  (18) 
pfpi4k_grid

>  <i_i_glide_lignum>  (18) 
7

>  <i_i_glide_rotatable_bonds>  (18) 
0

>  <r_i_docking_score>  (18) 
-4.05492

>  <r_i_glide_ligand_efficiency>  (18) 
-0.368629

>  <r_i_glide_ligand_efficiency_sa>  (18) 
-0.819824

>  <r_i_glide_ligand_efficiency_ln>  (18) 
-1.19336

>  <r_i_glide_gscore>  (18) 
-4.05492

>  <r_i_glide_lipo>  (18) 
0

>  <r_i_glide_hbond>  (18) 
-0.2

>  <r_i_glide_metal>  (18) 
-0

>  <r_i_glide_rewards>  (18) 
-2.25

>  <r_i_glide_evdw>  (18) 
-11.2411

>  <r_i_glide_ecoul>  (18) 
-6.30629

>  <r_i_glide_erotb>  (18) 
0

>  <r_i_glide_esite>  (18) 
-0.096923

>  <r_i_glide_emodel>  (18) 
-24.5928

>  <r_i_glide_energy>  (18) 
-17.5474

>  <r_i_glide_einternal>  (18) 
0

>  <r_i_glide_intrahb_reward>  (18) 
-0

>  <i_i_glide_confnum>  (18) 
2

>  <i_i_glide_posenum>  (18) 
6

>  <r_i_glide_eff_state_penalty>  (18) 
0

>  <ligand_id>  (18) 
6

>  <original_smiles>  (18) 
CC12CC(Cc3occc31)N2

>  <smiles>  (18) 
[H]c1oc2c(c1[H])C1(C([H])([H])[H])C([H])([H])C([H])(C2([H])[H])[N+]1([H])[H]

$$$$
7:0:0
     RDKit          3D

 39 42  0  0  1  0  0  0  0  0999 V2000
    4.5958   -2.8544   -3.1247 C   0  0  0  0  0  0  0  0  0  0  0  0
    4.7064   -2.8117   -1.7839 C   0  0  0  0  0  0  0  0  0  0  0  0
    5.8081   -3.0863   -0.9299 C   0  0  0  0  0  0  0  0  0  0  0  0
    7.0282   -2.9982   -1.1313 O   0  0  0  0  0  0  0  0  0  0  0  0
    4.8049   -3.3795    0.2246 C   0  0  2  0  0  0  0  0  0  0  0  0
    3.6933   -2.7030   -0.6446 C   0  0  1  0  0  0  0  0  0  0  0  0
    3.4310   -1.2240   -0.2498 C   0  0  0  0  0  0  0  0  0  0  0  0
    4.6627   -0.4856    0.3889 C   0  0  0  0  0  0  0  0  0  0  0  0
    5.4202   -1.2397    1.5308 C   0  0  1  0  0  0  0  0  0  0  0  0
    5.2796   -0.5706    2.9082 C   0  0  0  0  0  0  0  0  0  0  0  0
    4.9501   -2.6825    1.5609 C   0  0  2  0  0  0  0  0  0  0  0  0
    5.6550   -3.9342    2.0704 C   0  0  1  0  0  0  0  0  0  0  0  0
    5.0907   -4.4249    3.2861 O   0  0  0  0  0  0  0  0  0  0  0  0
    4.0327   -5.2436    3.1320 C   0  0  0  0  0  0  0  0  0  0  0  0
    3.3605   -5.7662    4.0164 O   0  0  0  0  0  0  0  0  0  0  0  0
    3.7392   -5.4502    1.6507 C   0  0  1  0  0  0  0  0  0  0  0  0
    2.3204   -4.9551    1.2958 C   0  0  0  0  0  0  0  0  0  0  0  0
    4.9285   -4.7576    0.9735 C   0  0  1  0  0  0  0  0  0  0  0  0
    5.8012   -5.8406    0.3364 C   0  0  0  0  0  0  0  0  0  0  0  0
    3.6234   -2.7210   -3.5759 H   0  0  0  0  0  0  0  0  0  0  0  0
    5.4384   -3.0502   -3.7708 H   0  0  0  0  0  0  0  0  0  0  0  0
    2.7981   -3.3143   -0.7813 H   0  0  0  0  0  0  0  0  0  0  0  0
    3.0697   -0.6624   -1.1072 H   0  0  0  0  0  0  0  0  0  0  0  0
    2.6219   -1.2091    0.4794 H   0  0  0  0  0  0  0  0  0  0  0  0
    5.3923   -0.2856   -0.3971 H   0  0  0  0  0  0  0  0  0  0  0  0
    4.3430    0.4916    0.7388 H   0  0  0  0  0  0  0  0  0  0  0  0
    6.4864   -1.2365    1.2990 H   0  0  0  0  0  0  0  0  0  0  0  0
    4.2378   -0.4828    3.2170 H   0  0  0  0  0  0  0  0  0  0  0  0
    5.7088    0.4293    2.8991 H   0  0  0  0  0  0  0  0  0  0  0  0
    5.8006   -1.1344    3.6818 H   0  0  0  0  0  0  0  0  0  0  0  0
    3.9642   -2.6868    2.0149 H   0  0  0  0  0  0  0  0  0  0  0  0
    6.7415   -3.9034    1.9671 H   0  0  0  0  0  0  0  0  0  0  0  0
    3.7526   -6.5244    1.4573 H   0  0  0  0  0  0  0  0  0  0  0  0
    1.5702   -5.4940    1.8797 H   0  0  0  0  0  0  0  0  0  0  0  0
    2.0871   -5.1308    0.2421 H   0  0  0  0  0  0  0  0  0  0  0  0
    2.1771   -3.8928    1.5119 H   0  0  0  0  0  0  0  0  0  0  0  0
    5.9714   -6.6827    1.0121 H   0  0  0  0  0  0  0  0  0  0  0  0
    6.7904   -5.4591    0.0898 H   0  0  0  0  0  0  0  0  0  0  0  0
    5.3536   -6.2198   -0.5813 H   0  0  0  0  0  0  0  0  0  0  0  0
  1  2  2  0
  1 20  1  0
  1 21  1  0
  2  6  1  0
  2  3  1  0
  3  4  2  0
  5  3  1  6
  5 11  1  0
  5 18  1  0
  5  6  1  0
  6  7  1  0
  6 22  1  6
  7  8  1  0
  7 23  1  0
  7 24  1  0
  8  9  1  0
  8 25  1  0
  8 26  1  0
  9 10  1  0
  9 11  1  0
  9 27  1  6
 10 28  1  0
 10 29  1  0
 10 30  1  0
 11 12  1  0
 11 31  1  1
 12 18  1  0
 12 13  1  0
 12 32  1  1
 13 14  1  0
 14 15  2  0
 14 16  1  0
 16 17  1  0
 16 18  1  0
 16 33  1  1
 17 34  1  0
 17 35  1  0
 17 36  1  0
 18 19  1  6
 19 37  1  0
 19 38  1  0
 19 39  1  0
M  END
>  <i_m_ct_stereo_status>  (19) 
1

>  <s_m_source_file>  (19) 
/var/tmp/pbs.5076255.sched01/tmpsofmo5yl/0au1p7r3z.sdf

>  <i_m_source_file_index>  (19) 
8

>  <i_lp_mmshare_version>  (19) 
48012

>  <i_f3d_flags>  (19) 
0

>  <s_epik_input>  (19) 
Tz1DMUMoPVtDSDJdKVtDQEBIXShDMTIzKVtDSDJdW0NIMl1bQ0BASF0oW0NIM10pW0NAQEhdMltDQEBIXTRbQ0BAXTMoW0NIM10pW0NAQEhdKEMoTzQpPU8pW0NIM10=

>  <s_epik_cmdline>  (19) 
J2VwaWtfcHl0aG9uJywgJy1waHQnLCAnMi4wJywgJy1waCcsICc3LjAnLCAnLXRuJywgJzgnLCAnLW1hJywgJzIwMCcsICctaW1hZScsICc8aW5maWxlLm1hZT4nLCAnLW9tYWUnLCAnPG91dGZpbGUubWFlPic=

>  <r_lp_tautomer_probability>  (19) 
1

>  <r_epik_Ionization_Penalty>  (19) 
0

>  <r_epik_Ionization_Penalty_Charging>  (19) 
0

>  <r_epik_Ionization_Penalty_Neutral>  (19) 
0

>  <r_epik_State_Penalty>  (19) 
-0

>  <r_epik_Charging_Adjusted_Penalty>  (19) 
0

>  <i_epik_Tot_Q>  (19) 
0

>  <i_epik_Tot_abs_Q>  (19) 
0

>  <s_epik_Chemistry_Notes>  (19) 
This compound has an ester and may undergo hydrolysis at high or low pH.

>  <s_lp_Force_Field>  (19) 
OPLS3e

>  <r_lp_Energy>  (19) 
46.9686

>  <b_lp_Chiralities_Consistent>  (19) 
1

>  <s_lp_Variant>  (19) 
7:0-1

>  <s_i_glide_gridfile>  (19) 
pfpi4k_grid

>  <i_i_glide_lignum>  (19) 
8

>  <i_i_glide_rotatable_bonds>  (19) 
0

>  <r_i_docking_score>  (19) 
-3.5779

>  <r_i_glide_ligand_efficiency>  (19) 
-0.18831

>  <r_i_glide_ligand_efficiency_sa>  (19) 
-0.502488

>  <r_i_glide_ligand_efficiency_ln>  (19) 
-0.907074

>  <r_i_glide_gscore>  (19) 
-3.5779

>  <r_i_glide_lipo>  (19) 
-0.777285

>  <r_i_glide_hbond>  (19) 
0

>  <r_i_glide_metal>  (19) 
-0

>  <r_i_glide_rewards>  (19) 
-1.70264

>  <r_i_glide_evdw>  (19) 
-18.966

>  <r_i_glide_ecoul>  (19) 
-0.997794

>  <r_i_glide_erotb>  (19) 
0

>  <r_i_glide_esite>  (19) 
0

>  <r_i_glide_emodel>  (19) 
-24.2395

>  <r_i_glide_energy>  (19) 
-19.9638

>  <r_i_glide_einternal>  (19) 
0

>  <r_i_glide_intrahb_reward>  (19) 
-0

>  <i_i_glide_confnum>  (19) 
1

>  <i_i_glide_posenum>  (19) 
23

>  <r_i_glide_eff_state_penalty>  (19) 
0

>  <ligand_id>  (19) 
7

>  <original_smiles>  (19) 
C=C1C(=O)C23C1CCC(C)C2C1OC(=O)C(C)C13C

>  <smiles>  (19) 
[H]C([H])=C1C(=O)C23C1([H])C([H])([H])C([H])([H])C([H])(C([H])([H])[H])C2([H])C1([H])OC(=O)C([H])(C([H])([H])[H])C13C([H])([H])[H]

$$$$
7:0:1
     RDKit          3D

 39 42  0  0  1  0  0  0  0  0999 V2000
    3.3847   -5.3184    2.9301 C   0  0  0  0  0  0  0  0  0  0  0  0
    4.1058   -4.6173    2.0380 C   0  0  0  0  0  0  0  0  0  0  0  0
    4.6718   -3.3025    2.1033 C   0  0  0  0  0  0  0  0  0  0  0  0
    5.0080   -2.5934    3.0536 O   0  0  0  0  0  0  0  0  0  0  0  0
    4.6889   -3.2736    0.5399 C   0  0  2  0  0  0  0  0  0  0  0  0
    4.4420   -4.8193    0.5657 C   0  0  1  0  0  0  0  0  0  0  0  0
    5.7376   -5.6401    0.3717 C   0  0  0  0  0  0  0  0  0  0  0  0
    7.0593   -4.9184    0.8430 C   0  0  0  0  0  0  0  0  0  0  0  0
    7.2575   -3.4340    0.3809 C   0  0  1  0  0  0  0  0  0  0  0  0
    8.4392   -3.2509   -0.5878 C   0  0  0  0  0  0  0  0  0  0  0  0
    5.9556   -2.9381   -0.2185 C   0  0  2  0  0  0  0  0  0  0  0  0
    5.4219   -1.5126   -0.3466 C   0  0  1  0  0  0  0  0  0  0  0  0
    5.4457   -1.0439   -1.6910 O   0  0  0  0  0  0  0  0  0  0  0  0
    4.3710   -1.3685   -2.4309 C   0  0  0  0  0  0  0  0  0  0  0  0
    4.1817   -1.0965   -3.6134 O   0  0  0  0  0  0  0  0  0  0  0  0
    3.3908   -2.1564   -1.5839 C   0  0  1  0  0  0  0  0  0  0  0  0
    3.1583   -3.5477   -2.1728 C   0  0  0  0  0  0  0  0  0  0  0  0
    3.9869   -2.0670   -0.1700 C   0  0  1  0  0  0  0  0  0  0  0  0
    3.0772   -1.1670    0.6845 C   0  0  0  0  0  0  0  0  0  0  0  0
    2.9682   -6.2746    2.6413 H   0  0  0  0  0  0  0  0  0  0  0  0
    3.1980   -4.9483    3.9282 H   0  0  0  0  0  0  0  0  0  0  0  0
    3.6087   -5.1507   -0.0556 H   0  0  0  0  0  0  0  0  0  0  0  0
    5.6611   -6.6157    0.8520 H   0  0  0  0  0  0  0  0  0  0  0  0
    5.8132   -5.8478   -0.6960 H   0  0  0  0  0  0  0  0  0  0  0  0
    7.0701   -4.9123    1.9349 H   0  0  0  0  0  0  0  0  0  0  0  0
    7.9241   -5.5177    0.5617 H   0  0  0  0  0  0  0  0  0  0  0  0
    7.4784   -2.8297    1.2625 H   0  0  0  0  0  0  0  0  0  0  0  0
    8.3332   -3.8469   -1.4918 H   0  0  0  0  0  0  0  0  0  0  0  0
    9.3782   -3.5327   -0.1111 H   0  0  0  0  0  0  0  0  0  0  0  0
    8.5468   -2.2118   -0.8965 H   0  0  0  0  0  0  0  0  0  0  0  0
    5.8700   -3.3904   -1.2059 H   0  0  0  0  0  0  0  0  0  0  0  0
    5.7535   -0.8301    0.4379 H   0  0  0  0  0  0  0  0  0  0  0  0
    2.4491   -1.6384   -1.6637 H   0  0  0  0  0  0  0  0  0  0  0  0
    2.7611   -3.4752   -3.1867 H   0  0  0  0  0  0  0  0  0  0  0  0
    2.4177   -4.0923   -1.5867 H   0  0  0  0  0  0  0  0  0  0  0  0
    4.0748   -4.1399   -2.2318 H   0  0  0  0  0  0  0  0  0  0  0  0
    2.7825   -0.2635    0.1543 H   0  0  0  0  0  0  0  0  0  0  0  0
    3.5835   -0.8250    1.5880 H   0  0  0  0  0  0  0  0  0  0  0  0
    2.1740   -1.6904    0.9927 H   0  0  0  0  0  0  0  0  0  0  0  0
  1  2  2  0
  1 20  1  0
  1 21  1  0
  2  6  1  0
  2  3  1  0
  3  4  2  0
  5  3  1  1
  5 11  1  0
  5 18  1  0
  5  6  1  0
  6  7  1  0
  6 22  1  6
  7  8  1  0
  7 23  1  0
  7 24  1  0
  8  9  1  0
  8 25  1  0
  8 26  1  0
  9 10  1  0
  9 11  1  0
  9 27  1  1
 10 28  1  0
 10 29  1  0
 10 30  1  0
 11 12  1  0
 11 31  1  6
 12 18  1  0
 12 13  1  0
 12 32  1  1
 13 14  1  0
 14 15  2  0
 14 16  1  0
 16 17  1  0
 16 18  1  0
 16 33  1  1
 17 34  1  0
 17 35  1  0
 17 36  1  0
 18 19  1  1
 19 37  1  0
 19 38  1  0
 19 39  1  0
M  END
>  <i_m_ct_stereo_status>  (20) 
1

>  <s_m_source_file>  (20) 
/var/tmp/pbs.5076255.sched01/tmpsofmo5yl/0au1p7r3z.sdf

>  <i_m_source_file_index>  (20) 
8

>  <i_lp_mmshare_version>  (20) 
48012

>  <i_f3d_flags>  (20) 
0

>  <s_epik_input>  (20) 
Tz1DMUMoPVtDSDJdKVtDQEBIXShDMTIzKVtDSDJdW0NIMl1bQ0BASF0oW0NIM10pW0NAQEhdMltDQEBIXTRbQ0BAXTMoW0NIM10pW0NAQEhdKEMoTzQpPU8pW0NIM10=

>  <s_epik_cmdline>  (20) 
J2VwaWtfcHl0aG9uJywgJy1waHQnLCAnMi4wJywgJy1waCcsICc3LjAnLCAnLXRuJywgJzgnLCAnLW1hJywgJzIwMCcsICctaW1hZScsICc8aW5maWxlLm1hZT4nLCAnLW9tYWUnLCAnPG91dGZpbGUubWFlPic=

>  <r_lp_tautomer_probability>  (20) 
1

>  <r_epik_Ionization_Penalty>  (20) 
0

>  <r_epik_Ionization_Penalty_Charging>  (20) 
0

>  <r_epik_Ionization_Penalty_Neutral>  (20) 
0

>  <r_epik_State_Penalty>  (20) 
-0

>  <r_epik_Charging_Adjusted_Penalty>  (20) 
0

>  <i_epik_Tot_Q>  (20) 
0

>  <i_epik_Tot_abs_Q>  (20) 
0

>  <s_epik_Chemistry_Notes>  (20) 
This compound has an ester and may undergo hydrolysis at high or low pH.

>  <s_lp_Force_Field>  (20) 
OPLS3e

>  <r_lp_Energy>  (20) 
46.9686

>  <b_lp_Chiralities_Consistent>  (20) 
1

>  <s_lp_Variant>  (20) 
7:0-1

>  <s_i_glide_gridfile>  (20) 
pfpi4k_grid

>  <i_i_glide_lignum>  (20) 
8

>  <i_i_glide_rotatable_bonds>  (20) 
0

>  <r_i_docking_score>  (20) 
-3.51763

>  <r_i_glide_ligand_efficiency>  (20) 
-0.185138

>  <r_i_glide_ligand_efficiency_sa>  (20) 
-0.494024

>  <r_i_glide_ligand_efficiency_ln>  (20) 
-0.891795

>  <r_i_glide_gscore>  (20) 
-3.51763

>  <r_i_glide_lipo>  (20) 
-0.515186

>  <r_i_glide_hbond>  (20) 
-0.0135843

>  <r_i_glide_metal>  (20) 
-0

>  <r_i_glide_rewards>  (20) 
-1.67144

>  <r_i_glide_evdw>  (20) 
-17.7693

>  <r_i_glide_ecoul>  (20) 
-2.57798

>  <r_i_glide_erotb>  (20) 
0

>  <r_i_glide_esite>  (20) 
-0.0422547

>  <r_i_glide_emodel>  (20) 
-24.5731

>  <r_i_glide_energy>  (20) 
-20.3473

>  <r_i_glide_einternal>  (20) 
0

>  <r_i_glide_intrahb_reward>  (20) 
-0

>  <i_i_glide_confnum>  (20) 
1

>  <i_i_glide_posenum>  (20) 
6

>  <r_i_glide_eff_state_penalty>  (20) 
0

>  <ligand_id>  (20) 
7

>  <original_smiles>  (20) 
C=C1C(=O)C23C1CCC(C)C2C1OC(=O)C(C)C13C

>  <smiles>  (20) 
[H]C([H])=C1C(=O)C23C1([H])C([H])([H])C([H])([H])C([H])(C([H])([H])[H])C2([H])C1([H])OC(=O)C([H])(C([H])([H])[H])C13C([H])([H])[H]

$$$$
7:0:2
     RDKit          3D

 39 42  0  0  1  0  0  0  0  0999 V2000
    4.1343   -1.1380   -2.2816 C   0  0  0  0  0  0  0  0  0  0  0  0
    4.3236   -1.5925   -1.0298 C   0  0  0  0  0  0  0  0  0  0  0  0
    5.5011   -2.0684   -0.3686 C   0  0  0  0  0  0  0  0  0  0  0  0
    6.7000   -1.8614   -0.5726 O   0  0  0  0  0  0  0  0  0  0  0  0
    4.5799   -2.8424    0.6333 C   0  0  2  0  0  0  0  0  0  0  0  0
    3.3805   -1.9902    0.1029 C   0  0  1  0  0  0  0  0  0  0  0  0
    3.0285   -0.7955    1.0341 C   0  0  0  0  0  0  0  0  0  0  0  0
    4.2401   -0.2379    1.8672 C   0  0  0  0  0  0  0  0  0  0  0  0
    5.1158   -1.2903    2.6236 C   0  0  1  0  0  0  0  0  0  0  0  0
    5.0043   -1.1797    4.1536 C   0  0  0  0  0  0  0  0  0  0  0  0
    4.7386   -2.6757    2.1312 C   0  0  2  0  0  0  0  0  0  0  0  0
    5.5603   -3.9631    2.1230 C   0  0  1  0  0  0  0  0  0  0  0  0
    5.1125   -4.9132    3.0835 O   0  0  0  0  0  0  0  0  0  0  0  0
    4.0995   -5.7038    2.6650 C   0  0  0  0  0  0  0  0  0  0  0  0
    3.5241   -6.5654    3.3207 O   0  0  0  0  0  0  0  0  0  0  0  0
    3.7336   -5.3732    1.2199 C   0  0  1  0  0  0  0  0  0  0  0  0
    2.2662   -4.9086    1.1171 C   0  0  0  0  0  0  0  0  0  0  0  0
    4.8328   -4.3759    0.8166 C   0  0  1  0  0  0  0  0  0  0  0  0
    5.7453   -5.0723   -0.2013 C   0  0  0  0  0  0  0  0  0  0  0  0
    3.1283   -0.9248   -2.6144 H   0  0  0  0  0  0  0  0  0  0  0  0
    4.9500   -0.9997   -2.9757 H   0  0  0  0  0  0  0  0  0  0  0  0
    2.5211   -2.5811   -0.2148 H   0  0  0  0  0  0  0  0  0  0  0  0
    2.5707    0.0215    0.4792 H   0  0  0  0  0  0  0  0  0  0  0  0
    2.2558   -1.1182    1.7346 H   0  0  0  0  0  0  0  0  0  0  0  0
    4.9001    0.2930    1.1793 H   0  0  0  0  0  0  0  0  0  0  0  0
    3.8797    0.5240    2.5564 H   0  0  0  0  0  0  0  0  0  0  0  0
    6.1634   -1.1070    2.3761 H   0  0  0  0  0  0  0  0  0  0  0  0
    3.9802   -1.3045    4.5006 H   0  0  0  0  0  0  0  0  0  0  0  0
    5.3557   -0.2056    4.4968 H   0  0  0  0  0  0  0  0  0  0  0  0
    5.6102   -1.9375    4.6515 H   0  0  0  0  0  0  0  0  0  0  0  0
    3.7795   -2.9234    2.5868 H   0  0  0  0  0  0  0  0  0  0  0  0
    6.6362   -3.8096    2.0242 H   0  0  0  0  0  0  0  0  0  0  0  0
    3.8156   -6.2936    0.6450 H   0  0  0  0  0  0  0  0  0  0  0  0
    1.5945   -5.6884    1.4800 H   0  0  0  0  0  0  0  0  0  0  0  0
    1.9909   -4.7089    0.0821 H   0  0  0  0  0  0  0  0  0  0  0  0
    2.0608   -4.0172    1.7131 H   0  0  0  0  0  0  0  0  0  0  0  0
    6.0082   -6.0832    0.1117 H   0  0  0  0  0  0  0  0  0  0  0  0
    6.6925   -4.5435   -0.3116 H   0  0  0  0  0  0  0  0  0  0  0  0
    5.2793   -5.1251   -1.1844 H   0  0  0  0  0  0  0  0  0  0  0  0
  1  2  2  0
  1 20  1  0
  1 21  1  0
  2  6  1  0
  2  3  1  0
  3  4  2  0
  5  3  1  6
  5 11  1  0
  5 18  1  0
  5  6  1  0
  6  7  1  0
  6 22  1  6
  7  8  1  0
  7 23  1  0
  7 24  1  0
  8  9  1  0
  8 25  1  0
  8 26  1  0
  9 10  1  0
  9 11  1  0
  9 27  1  1
 10 28  1  0
 10 29  1  0
 10 30  1  0
 11 12  1  0
 11 31  1  1
 12 18  1  0
 12 13  1  0
 12 32  1  6
 13 14  1  0
 14 15  2  0
 14 16  1  0
 16 17  1  0
 16 18  1  0
 16 33  1  6
 17 34  1  0
 17 35  1  0
 17 36  1  0
 18 19  1  6
 19 37  1  0
 19 38  1  0
 19 39  1  0
M  END
>  <i_m_ct_stereo_status>  (21) 
1

>  <s_m_source_file>  (21) 
/var/tmp/pbs.5076255.sched01/tmpsofmo5yl/0au1p7r3z.sdf

>  <i_m_source_file_index>  (21) 
8

>  <i_lp_mmshare_version>  (21) 
48012

>  <i_f3d_flags>  (21) 
0

>  <s_epik_input>  (21) 
Tz1DMUMoPVtDSDJdKVtDQEBIXShDMTIzKVtDSDJdW0NIMl1bQ0BASF0oW0NIM10pW0NAQEhdMltDQEBIXTRbQ0BAXTMoW0NIM10pW0NAQEhdKEMoTzQpPU8pW0NIM10=

>  <s_epik_cmdline>  (21) 
J2VwaWtfcHl0aG9uJywgJy1waHQnLCAnMi4wJywgJy1waCcsICc3LjAnLCAnLXRuJywgJzgnLCAnLW1hJywgJzIwMCcsICctaW1hZScsICc8aW5maWxlLm1hZT4nLCAnLW9tYWUnLCAnPG91dGZpbGUubWFlPic=

>  <r_lp_tautomer_probability>  (21) 
1

>  <r_epik_Ionization_Penalty>  (21) 
0

>  <r_epik_Ionization_Penalty_Charging>  (21) 
0

>  <r_epik_Ionization_Penalty_Neutral>  (21) 
0

>  <r_epik_State_Penalty>  (21) 
-0

>  <r_epik_Charging_Adjusted_Penalty>  (21) 
0

>  <i_epik_Tot_Q>  (21) 
0

>  <i_epik_Tot_abs_Q>  (21) 
0

>  <s_epik_Chemistry_Notes>  (21) 
This compound has an ester and may undergo hydrolysis at high or low pH.

>  <s_lp_Force_Field>  (21) 
OPLS3e

>  <r_lp_Energy>  (21) 
46.9686

>  <b_lp_Chiralities_Consistent>  (21) 
1

>  <s_lp_Variant>  (21) 
7:0-1

>  <s_i_glide_gridfile>  (21) 
pfpi4k_grid

>  <i_i_glide_lignum>  (21) 
8

>  <i_i_glide_rotatable_bonds>  (21) 
0

>  <r_i_docking_score>  (21) 
-3.43919

>  <r_i_glide_ligand_efficiency>  (21) 
-0.18101

>  <r_i_glide_ligand_efficiency_sa>  (21) 
-0.483007

>  <r_i_glide_ligand_efficiency_ln>  (21) 
-0.871907

>  <r_i_glide_gscore>  (21) 
-3.43919

>  <r_i_glide_lipo>  (21) 
-0.414016

>  <r_i_glide_hbond>  (21) 
-0.157638

>  <r_i_glide_metal>  (21) 
-0

>  <r_i_glide_rewards>  (21) 
-1.63413

>  <r_i_glide_evdw>  (21) 
-17.6079

>  <r_i_glide_ecoul>  (21) 
-2.25126

>  <r_i_glide_erotb>  (21) 
0

>  <r_i_glide_esite>  (21) 
-0.0153224

>  <r_i_glide_emodel>  (21) 
-24.0097

>  <r_i_glide_energy>  (21) 
-19.8591

>  <r_i_glide_einternal>  (21) 
0

>  <r_i_glide_intrahb_reward>  (21) 
-0

>  <i_i_glide_confnum>  (21) 
1

>  <i_i_glide_posenum>  (21) 
2

>  <r_i_glide_eff_state_penalty>  (21) 
0

>  <ligand_id>  (21) 
7

>  <original_smiles>  (21) 
C=C1C(=O)C23C1CCC(C)C2C1OC(=O)C(C)C13C

>  <smiles>  (21) 
[H]C([H])=C1C(=O)C23C1([H])C([H])([H])C([H])([H])C([H])(C([H])([H])[H])C2([H])C1([H])OC(=O)C([H])(C([H])([H])[H])C13C([H])([H])[H]

$$$$
7:1:0
     RDKit          3D

 39 42  0  0  1  0  0  0  0  0999 V2000
    7.4298   -1.4835    0.4785 C   0  0  0  0  0  0  0  0  0  0  0  0
    6.4963   -2.2115   -0.1588 C   0  0  0  0  0  0  0  0  0  0  0  0
    6.0096   -3.5549    0.0263 C   0  0  0  0  0  0  0  0  0  0  0  0
    6.5778   -4.6236    0.2750 O   0  0  0  0  0  0  0  0  0  0  0  0
    4.6391   -2.9980   -0.4296 C   0  0  1  0  0  0  0  0  0  0  0  0
    5.4931   -2.0084   -1.2683 C   0  0  1  0  0  0  0  0  0  0  0  0
    4.8012   -0.7461   -1.6853 C   0  0  0  0  0  0  0  0  0  0  0  0
    3.5138   -1.1723   -2.4610 C   0  0  0  0  0  0  0  0  0  0  0  0
    3.1510   -2.7087   -2.5538 C   0  0  1  0  0  0  0  0  0  0  0  0
    3.5847   -3.3106   -3.8903 C   0  0  0  0  0  0  0  0  0  0  0  0
    3.5858   -3.5926   -1.3370 C   0  0  2  0  0  0  0  0  0  0  0  0
    2.6318   -3.5921   -0.1533 C   0  0  1  0  0  0  0  0  0  0  0  0
    2.5738   -4.8683    0.4768 O   0  0  0  0  0  0  0  0  0  0  0  0
    3.1564   -4.9061    1.6770 C   0  0  0  0  0  0  0  0  0  0  0  0
    3.2927   -5.8811    2.4018 O   0  0  0  0  0  0  0  0  0  0  0  0
    3.5855   -3.4972    2.0545 C   0  0  1  0  0  0  0  0  0  0  0  0
    4.8493   -3.4407    2.9406 C   0  0  0  0  0  0  0  0  0  0  0  0
    3.5733   -2.7459    0.7103 C   0  0  1  0  0  0  0  0  0  0  0  0
    3.1370   -1.3029    1.0006 C   0  0  0  0  0  0  0  0  0  0  0  0
    7.6165   -0.4687    0.1930 H   0  0  0  0  0  0  0  0  0  0  0  0
    8.0220   -1.9208    1.2623 H   0  0  0  0  0  0  0  0  0  0  0  0
    5.8584   -2.4974   -2.1786 H   0  0  0  0  0  0  0  0  0  0  0  0
    4.5766   -0.1201   -0.8267 H   0  0  0  0  0  0  0  0  0  0  0  0
    5.4422   -0.1376   -2.3248 H   0  0  0  0  0  0  0  0  0  0  0  0
    2.6489   -0.6570   -2.0436 H   0  0  0  0  0  0  0  0  0  0  0  0
    3.5963   -0.7793   -3.4732 H   0  0  0  0  0  0  0  0  0  0  0  0
    2.0637   -2.7319   -2.5936 H   0  0  0  0  0  0  0  0  0  0  0  0
    4.6646   -3.3347   -3.9975 H   0  0  0  0  0  0  0  0  0  0  0  0
    3.1543   -2.7502   -4.7182 H   0  0  0  0  0  0  0  0  0  0  0  0
    3.2100   -4.3230   -3.9863 H   0  0  0  0  0  0  0  0  0  0  0  0
    3.8959   -4.6058   -1.5591 H   0  0  0  0  0  0  0  0  0  0  0  0
    1.6746   -3.1183   -0.3557 H   0  0  0  0  0  0  0  0  0  0  0  0
    2.7744   -3.1183    2.6755 H   0  0  0  0  0  0  0  0  0  0  0  0
    4.5858   -3.6820    3.9695 H   0  0  0  0  0  0  0  0  0  0  0  0
    5.3033   -2.4484    2.9422 H   0  0  0  0  0  0  0  0  0  0  0  0
    5.6047   -4.1700    2.6504 H   0  0  0  0  0  0  0  0  0  0  0  0
    2.3514   -1.2446    1.7564 H   0  0  0  0  0  0  0  0  0  0  0  0
    2.7024   -0.8349    0.1240 H   0  0  0  0  0  0  0  0  0  0  0  0
    3.9720   -0.6833    1.3296 H   0  0  0  0  0  0  0  0  0  0  0  0
  1  2  2  0
  1 20  1  0
  1 21  1  0
  2  6  1  0
  2  3  1  0
  3  4  2  0
  5  3  1  1
  5 11  1  0
  5 18  1  0
  5  6  1  0
  6  7  1  0
  6 22  1  6
  7  8  1  0
  7 23  1  0
  7 24  1  0
  8  9  1  0
  8 25  1  0
  8 26  1  0
  9 10  1  0
  9 11  1  0
  9 27  1  6
 10 28  1  0
 10 29  1  0
 10 30  1  0
 11 12  1  0
 11 31  1  6
 12 18  1  0
 12 13  1  0
 12 32  1  6
 13 14  1  0
 14 15  2  0
 14 16  1  0
 16 17  1  0
 16 18  1  0
 16 33  1  1
 17 34  1  0
 17 35  1  0
 17 36  1  0
 18 19  1  1
 19 37  1  0
 19 38  1  0
 19 39  1  0
M  END
>  <i_m_ct_stereo_status>  (22) 
1

>  <s_m_source_file>  (22) 
/var/tmp/pbs.5076255.sched01/tmpsofmo5yl/0au1p7r3z.sdf

>  <i_m_source_file_index>  (22) 
9

>  <i_lp_mmshare_version>  (22) 
48012

>  <i_f3d_flags>  (22) 
0

>  <s_epik_input>  (22) 
Tz1DMUMoPVtDSDJdKVtDQEBIXShDMTIzKVtDSDJdW0NIMl1bQ0BASF0oW0NIM10pW0NAQEhdMltDQEBIXTRbQ0BAXTMoW0NIM10pW0NAQEhdKEMoTzQpPU8pW0NIM10=

>  <s_epik_cmdline>  (22) 
J2VwaWtfcHl0aG9uJywgJy1waHQnLCAnMi4wJywgJy1waCcsICc3LjAnLCAnLXRuJywgJzgnLCAnLW1hJywgJzIwMCcsICctaW1hZScsICc8aW5maWxlLm1hZT4nLCAnLW9tYWUnLCAnPG91dGZpbGUubWFlPic=

>  <r_lp_tautomer_probability>  (22) 
1

>  <r_epik_Ionization_Penalty>  (22) 
0

>  <r_epik_Ionization_Penalty_Charging>  (22) 
0

>  <r_epik_Ionization_Penalty_Neutral>  (22) 
0

>  <r_epik_State_Penalty>  (22) 
-0

>  <r_epik_Charging_Adjusted_Penalty>  (22) 
0

>  <i_epik_Tot_Q>  (22) 
0

>  <i_epik_Tot_abs_Q>  (22) 
0

>  <s_epik_Chemistry_Notes>  (22) 
This compound has an ester and may undergo hydrolysis at high or low pH.

>  <s_lp_Force_Field>  (22) 
OPLS3e

>  <r_lp_Energy>  (22) 
52.463

>  <b_lp_Chiralities_Consistent>  (22) 
1

>  <s_lp_Variant>  (22) 
7:0-2

>  <s_i_glide_gridfile>  (22) 
pfpi4k_grid

>  <i_i_glide_lignum>  (22) 
9

>  <i_i_glide_rotatable_bonds>  (22) 
0

>  <r_i_docking_score>  (22) 
-3.0291

>  <r_i_glide_ligand_efficiency>  (22) 
-0.159426

>  <r_i_glide_ligand_efficiency_sa>  (22) 
-0.425413

>  <r_i_glide_ligand_efficiency_ln>  (22) 
-0.767941

>  <r_i_glide_gscore>  (22) 
-3.0291

>  <r_i_glide_lipo>  (22) 
-0.150036

>  <r_i_glide_hbond>  (22) 
0

>  <r_i_glide_metal>  (22) 
-0

>  <r_i_glide_rewards>  (22) 
-1.73502

>  <r_i_glide_evdw>  (22) 
-16.9185

>  <r_i_glide_ecoul>  (22) 
-1.98745

>  <r_i_glide_erotb>  (22) 
0

>  <r_i_glide_esite>  (22) 
0

>  <r_i_glide_emodel>  (22) 
-21.6205

>  <r_i_glide_energy>  (22) 
-18.906

>  <r_i_glide_einternal>  (22) 
0

>  <r_i_glide_intrahb_reward>  (22) 
-0

>  <i_i_glide_confnum>  (22) 
1

>  <i_i_glide_posenum>  (22) 
21

>  <r_i_glide_eff_state_penalty>  (22) 
0

>  <ligand_id>  (22) 
7

>  <original_smiles>  (22) 
C=C1C(=O)C23C1CCC(C)C2C1OC(=O)C(C)C13C

>  <smiles>  (22) 
[H]C([H])=C1C(=O)C23C1([H])C([H])([H])C([H])([H])C([H])(C([H])([H])[H])C2([H])C1([H])OC(=O)C([H])(C([H])([H])[H])C13C([H])([H])[H]

$$$$
9:0:0
     RDKit          3D

 29 30  0  0  1  0  0  0  0  0999 V2000
   -1.3152   -7.1360    2.6364 O   0  0  0  0  0  0  0  0  0  0  0  0
   -0.2632   -7.3894    2.0642 N   0  0  0  0  0  0  0  0  0  0  0  0
    0.2134   -6.6702    1.1898 O   0  0  0  0  0  0  0  0  0  0  0  0
    0.4965   -8.5887    2.4868 C   0  0  0  0  0  0  0  0  0  0  0  0
   -0.0787   -9.5756    3.3047 C   0  0  0  0  0  0  0  0  0  0  0  0
    0.6743  -10.7078    3.6846 C   0  0  0  0  0  0  0  0  0  0  0  0
    2.0197  -10.8495    3.2752 C   0  0  0  0  0  0  0  0  0  0  0  0
    2.6146   -9.8428    2.4778 C   0  0  0  0  0  0  0  0  0  0  0  0
    3.9424   -9.9392    2.0513 N   0  0  0  0  0  0  0  0  0  0  0  0
    5.2657   -8.8415    2.2941 S   0  0  0  0  0  0  0  0  0  0  0  0
    5.6451   -8.9724    3.7198 O   0  0  0  0  0  0  0  0  0  0  0  0
    6.2236   -9.1405    1.2355 O   0  0  0  0  0  0  0  0  0  0  0  0
    4.5472   -7.2221    2.0287 C   0  0  0  0  0  0  0  0  0  0  0  0
    4.0088   -6.4999    3.1112 C   0  0  0  0  0  0  0  0  0  0  0  0
    3.3485   -5.2759    2.8788 C   0  0  0  0  0  0  0  0  0  0  0  0
    3.2193   -4.7863    1.5644 C   0  0  0  0  0  0  0  0  0  0  0  0
    2.6021   -3.6028    1.3383 F   0  0  0  0  0  0  0  0  0  0  0  0
    3.7314   -5.5247    0.4816 C   0  0  0  0  0  0  0  0  0  0  0  0
    4.3937   -6.7482    0.7103 C   0  0  0  0  0  0  0  0  0  0  0  0
    1.8214   -8.7568    2.0613 C   0  0  0  0  0  0  0  0  0  0  0  0
   -1.1036   -9.4775    3.6379 H   0  0  0  0  0  0  0  0  0  0  0  0
    0.2150  -11.4713    4.3092 H   0  0  0  0  0  0  0  0  0  0  0  0
    2.5835  -11.7309    3.5717 H   0  0  0  0  0  0  0  0  0  0  0  0
    4.2031  -10.8236    1.6384 H   0  0  0  0  0  0  0  0  0  0  0  0
    4.0657   -6.9001    4.1168 H   0  0  0  0  0  0  0  0  0  0  0  0
    2.9303   -4.7143    3.7070 H   0  0  0  0  0  0  0  0  0  0  0  0
    3.6004   -5.1636   -0.5314 H   0  0  0  0  0  0  0  0  0  0  0  0
    4.7294   -7.3481   -0.1270 H   0  0  0  0  0  0  0  0  0  0  0  0
    2.2162   -8.0274    1.3745 H   0  0  0  0  0  0  0  0  0  0  0  0
  1  2  2  0
  2  3  1  0
  2  4  1  0
  4 20  2  0
  4  5  1  0
  5  6  2  0
  5 21  1  0
  6  7  1  0
  6 22  1  0
  7  8  2  0
  7 23  1  0
  8  9  1  0
  8 20  1  0
  9 10  1  0
  9 24  1  0
 10 11  2  0
 10 12  2  0
 10 13  1  0
 13 19  1  0
 13 14  2  0
 14 15  1  0
 14 25  1  0
 15 16  2  0
 15 26  1  0
 16 17  1  0
 16 18  1  0
 18 19  2  0
 18 27  1  0
 19 28  1  0
 20 29  1  0
M  CHG  2   2   1   3  -1
M  END
>  <i_m_ct_stereo_status>  (23) 
1

>  <s_m_source_file>  (23) 
/var/tmp/pbs.5076255.sched01/tmpsofmo5yl/0au1p7r3z.sdf

>  <i_m_source_file_index>  (23) 
12

>  <i_lp_mmshare_version>  (23) 
48012

>  <i_f3d_flags>  (23) 
0

>  <s_epik_input>  (23) 
Tz1bTitdKFtPLV0pYzFbY0hdW2NIXVtjSF1jKFtjSF0xKVtOSF1TKD1PKSg9TyljMltjSF1bY0hdYyhGKVtjSF1bY0hdMg==

>  <s_epik_cmdline>  (23) 
J2VwaWtfcHl0aG9uJywgJy1waHQnLCAnMi4wJywgJy1waCcsICc3LjAnLCAnLXRuJywgJzgnLCAnLW1hJywgJzIwMCcsICctaW1hZScsICc8aW5maWxlLm1hZT4nLCAnLW9tYWUnLCAnPG91dGZpbGUubWFlPic=

>  <r_epik_Ionization_Penalty>  (23) 
0.219972

>  <r_epik_Ionization_Penalty_Charging>  (23) 
0

>  <r_epik_Ionization_Penalty_Neutral>  (23) 
0.219972

>  <r_epik_State_Penalty>  (23) 
0.210298

>  <r_epik_Charging_Adjusted_Penalty>  (23) 
0.210298

>  <i_epik_Tot_Q>  (23) 
0

>  <i_epik_Tot_abs_Q>  (23) 
2

>  <s_lp_Force_Field>  (23) 
OPLS3e

>  <r_lp_Energy>  (23) 
22.2692

>  <b_lp_Chiralities_Consistent>  (23) 
1

>  <s_lp_Variant>  (23) 
9:0-1

>  <s_i_glide_gridfile>  (23) 
pfpi4k_grid

>  <i_i_glide_lignum>  (23) 
12

>  <i_i_glide_rotatable_bonds>  (23) 
4

>  <r_i_docking_score>  (23) 
-3.82241

>  <r_i_glide_ligand_efficiency>  (23) 
-0.19112

>  <r_i_glide_ligand_efficiency_sa>  (23) 
-0.51878

>  <r_i_glide_ligand_efficiency_ln>  (23) 
-0.956622

>  <r_i_glide_gscore>  (23) 
-3.82241

>  <r_i_glide_lipo>  (23) 
-0.257535

>  <r_i_glide_hbond>  (23) 
-0.16

>  <r_i_glide_metal>  (23) 
-0

>  <r_i_glide_rewards>  (23) 
-1.38903

>  <r_i_glide_evdw>  (23) 
-23.8375

>  <r_i_glide_ecoul>  (23) 
-7.10628

>  <r_i_glide_erotb>  (23) 
0.62603

>  <r_i_glide_esite>  (23) 
-0.384053

>  <r_i_glide_emodel>  (23) 
-36.4678

>  <r_i_glide_energy>  (23) 
-30.9438

>  <r_i_glide_einternal>  (23) 
4.30941

>  <r_i_glide_intrahb_reward>  (23) 
-0

>  <i_i_glide_confnum>  (23) 
4

>  <i_i_glide_posenum>  (23) 
13

>  <r_i_glide_eff_state_penalty>  (23) 
0

>  <ligand_id>  (23) 
9

>  <original_smiles>  (23) 
O=[N+]([O-])c1cccc(NS(=O)(=O)c2ccc(F)cc2)c1

>  <smiles>  (23) 
[H]c1c([H])c(N([H])S(=O)(=O)c2c([H])c([H])c(F)c([H])c2[H])c([H])c([N+](=O)[O-])c1[H]

$$$$
9:0:1
     RDKit          3D

 29 30  0  0  1  0  0  0  0  0999 V2000
   -1.7877    0.6117    6.7581 O   0  0  0  0  0  0  0  0  0  0  0  0
   -0.9897   -0.0127    6.0681 N   0  0  0  0  0  0  0  0  0  0  0  0
   -0.4238   -1.0285    6.4590 O   0  0  0  0  0  0  0  0  0  0  0  0
   -0.7262    0.4636    4.6972 C   0  0  0  0  0  0  0  0  0  0  0  0
   -1.3814    1.6120    4.1993 C   0  0  0  0  0  0  0  0  0  0  0  0
   -1.1397    2.0553    2.8851 C   0  0  0  0  0  0  0  0  0  0  0  0
   -0.2396    1.3543    2.0615 C   0  0  0  0  0  0  0  0  0  0  0  0
    0.4358    0.2189    2.5429 C   0  0  0  0  0  0  0  0  0  0  0  0
    1.3405   -0.4553    1.7152 N   0  0  0  0  0  0  0  0  0  0  0  0
    2.6768   -1.4251    2.2216 S   0  0  0  0  0  0  0  0  0  0  0  0
    3.5344   -0.5332    3.0169 O   0  0  0  0  0  0  0  0  0  0  0  0
    2.0923   -2.6417    2.8090 O   0  0  0  0  0  0  0  0  0  0  0  0
    3.5229   -1.8459    0.7049 C   0  0  0  0  0  0  0  0  0  0  0  0
    3.5252   -3.1795    0.2509 C   0  0  0  0  0  0  0  0  0  0  0  0
    4.2175   -3.5135   -0.9297 C   0  0  0  0  0  0  0  0  0  0  0  0
    4.8974   -2.5138   -1.6540 C   0  0  0  0  0  0  0  0  0  0  0  0
    5.5548   -2.8330   -2.7896 F   0  0  0  0  0  0  0  0  0  0  0  0
    4.8914   -1.1800   -1.1949 C   0  0  0  0  0  0  0  0  0  0  0  0
    4.2136   -0.8459   -0.0047 C   0  0  0  0  0  0  0  0  0  0  0  0
    0.1828   -0.2240    3.8612 C   0  0  0  0  0  0  0  0  0  0  0  0
   -2.0750    2.1582    4.8160 H   0  0  0  0  0  0  0  0  0  0  0  0
   -1.6288    2.9404    2.5069 H   0  0  0  0  0  0  0  0  0  0  0  0
   -0.0598    1.7110    1.0563 H   0  0  0  0  0  0  0  0  0  0  0  0
    1.1655   -0.4238    0.7047 H   0  0  0  0  0  0  0  0  0  0  0  0
    3.0160   -3.9471    0.8134 H   0  0  0  0  0  0  0  0  0  0  0  0
    4.2257   -4.5377   -1.2762 H   0  0  0  0  0  0  0  0  0  0  0  0
    5.4074   -0.4126   -1.7532 H   0  0  0  0  0  0  0  0  0  0  0  0
    4.2121    0.1734    0.3558 H   0  0  0  0  0  0  0  0  0  0  0  0
    0.6780   -1.1101    4.2299 H   0  0  0  0  0  0  0  0  0  0  0  0
  1  2  2  0
  2  3  1  0
  2  4  1  0
  4 20  2  0
  4  5  1  0
  5  6  2  0
  5 21  1  0
  6  7  1  0
  6 22  1  0
  7  8  2  0
  7 23  1  0
  8  9  1  0
  8 20  1  0
  9 10  1  0
  9 24  1  0
 10 11  2  0
 10 12  2  0
 10 13  1  0
 13 19  1  0
 13 14  2  0
 14 15  1  0
 14 25  1  0
 15 16  2  0
 15 26  1  0
 16 17  1  0
 16 18  1  0
 18 19  2  0
 18 27  1  0
 19 28  1  0
 20 29  1  0
M  CHG  2   2   1   3  -1
M  END
>  <i_m_ct_stereo_status>  (24) 
1

>  <s_m_source_file>  (24) 
/var/tmp/pbs.5076255.sched01/tmpsofmo5yl/0au1p7r3z.sdf

>  <i_m_source_file_index>  (24) 
12

>  <i_lp_mmshare_version>  (24) 
48012

>  <i_f3d_flags>  (24) 
0

>  <s_epik_input>  (24) 
Tz1bTitdKFtPLV0pYzFbY0hdW2NIXVtjSF1jKFtjSF0xKVtOSF1TKD1PKSg9TyljMltjSF1bY0hdYyhGKVtjSF1bY0hdMg==

>  <s_epik_cmdline>  (24) 
J2VwaWtfcHl0aG9uJywgJy1waHQnLCAnMi4wJywgJy1waCcsICc3LjAnLCAnLXRuJywgJzgnLCAnLW1hJywgJzIwMCcsICctaW1hZScsICc8aW5maWxlLm1hZT4nLCAnLW9tYWUnLCAnPG91dGZpbGUubWFlPic=

>  <r_epik_Ionization_Penalty>  (24) 
0.219972

>  <r_epik_Ionization_Penalty_Charging>  (24) 
0

>  <r_epik_Ionization_Penalty_Neutral>  (24) 
0.219972

>  <r_epik_State_Penalty>  (24) 
0.210298

>  <r_epik_Charging_Adjusted_Penalty>  (24) 
0.210298

>  <i_epik_Tot_Q>  (24) 
0

>  <i_epik_Tot_abs_Q>  (24) 
2

>  <s_lp_Force_Field>  (24) 
OPLS3e

>  <r_lp_Energy>  (24) 
22.2692

>  <b_lp_Chiralities_Consistent>  (24) 
1

>  <s_lp_Variant>  (24) 
9:0-1

>  <s_i_glide_gridfile>  (24) 
pfpi4k_grid

>  <i_i_glide_lignum>  (24) 
12

>  <i_i_glide_rotatable_bonds>  (24) 
4

>  <r_i_docking_score>  (24) 
-3.58882

>  <r_i_glide_ligand_efficiency>  (24) 
-0.179441

>  <r_i_glide_ligand_efficiency_sa>  (24) 
-0.487078

>  <r_i_glide_ligand_efficiency_ln>  (24) 
-0.898164

>  <r_i_glide_gscore>  (24) 
-3.58882

>  <r_i_glide_lipo>  (24) 
0

>  <r_i_glide_hbond>  (24) 
-0.16

>  <r_i_glide_metal>  (24) 
-0

>  <r_i_glide_rewards>  (24) 
-1.58174

>  <r_i_glide_evdw>  (24) 
-21.556

>  <r_i_glide_ecoul>  (24) 
-7.06648

>  <r_i_glide_erotb>  (24) 
0.62603

>  <r_i_glide_esite>  (24) 
-0.335344

>  <r_i_glide_emodel>  (24) 
-34.8229

>  <r_i_glide_energy>  (24) 
-28.6225

>  <r_i_glide_einternal>  (24) 
2.98432

>  <r_i_glide_intrahb_reward>  (24) 
-0

>  <i_i_glide_confnum>  (24) 
5

>  <i_i_glide_posenum>  (24) 
2

>  <r_i_glide_eff_state_penalty>  (24) 
0

>  <ligand_id>  (24) 
9

>  <original_smiles>  (24) 
O=[N+]([O-])c1cccc(NS(=O)(=O)c2ccc(F)cc2)c1

>  <smiles>  (24) 
[H]c1c([H])c(N([H])S(=O)(=O)c2c([H])c([H])c(F)c([H])c2[H])c([H])c([N+](=O)[O-])c1[H]

$$$$
9:0:2
     RDKit          3D

 29 30  0  0  1  0  0  0  0  0999 V2000
   -2.1868    0.9440    6.7413 O   0  0  0  0  0  0  0  0  0  0  0  0
   -1.4228    0.2556    6.0717 N   0  0  0  0  0  0  0  0  0  0  0  0
   -0.9743   -0.8161    6.4600 O   0  0  0  0  0  0  0  0  0  0  0  0
   -1.0452    0.7243    4.7291 C   0  0  0  0  0  0  0  0  0  0  0  0
   -1.6603    1.8602    4.1634 C   0  0  0  0  0  0  0  0  0  0  0  0
   -1.2961    2.2955    2.8775 C   0  0  0  0  0  0  0  0  0  0  0  0
   -0.3142    1.5991    2.1446 C   0  0  0  0  0  0  0  0  0  0  0  0
    0.3204    0.4757    2.7065 C   0  0  0  0  0  0  0  0  0  0  0  0
    1.3233   -0.1900    1.9956 N   0  0  0  0  0  0  0  0  0  0  0  0
    2.4778   -1.3226    2.6092 S   0  0  0  0  0  0  0  0  0  0  0  0
    3.0732   -0.6767    3.7886 O   0  0  0  0  0  0  0  0  0  0  0  0
    1.7637   -2.6028    2.7265 O   0  0  0  0  0  0  0  0  0  0  0  0
    3.7125   -1.4593    1.3207 C   0  0  0  0  0  0  0  0  0  0  0  0
    4.9943   -0.9156    1.5311 C   0  0  0  0  0  0  0  0  0  0  0  0
    5.9820   -1.0620    0.5385 C   0  0  0  0  0  0  0  0  0  0  0  0
    5.6812   -1.7421   -0.6591 C   0  0  0  0  0  0  0  0  0  0  0  0
    6.6258   -1.8679   -1.6116 F   0  0  0  0  0  0  0  0  0  0  0  0
    4.3992   -2.2865   -0.8676 C   0  0  0  0  0  0  0  0  0  0  0  0
    3.4147   -2.1495    0.1297 C   0  0  0  0  0  0  0  0  0  0  0  0
   -0.0570    0.0366    3.9910 C   0  0  0  0  0  0  0  0  0  0  0  0
   -2.4189    2.3987    4.7057 H   0  0  0  0  0  0  0  0  0  0  0  0
   -1.7608    3.1696    2.4462 H   0  0  0  0  0  0  0  0  0  0  0  0
   -0.0383    1.9504    1.1599 H   0  0  0  0  0  0  0  0  0  0  0  0
    1.3343   -0.0464    0.9923 H   0  0  0  0  0  0  0  0  0  0  0  0
    5.2278   -0.4105    2.4561 H   0  0  0  0  0  0  0  0  0  0  0  0
    6.9717   -0.6588    0.7059 H   0  0  0  0  0  0  0  0  0  0  0  0
    4.1725   -2.8093   -1.7871 H   0  0  0  0  0  0  0  0  0  0  0  0
    2.4314   -2.5684   -0.0204 H   0  0  0  0  0  0  0  0  0  0  0  0
    0.4197   -0.8375    4.4099 H   0  0  0  0  0  0  0  0  0  0  0  0
  1  2  2  0
  2  3  1  0
  2  4  1  0
  4 20  2  0
  4  5  1  0
  5  6  2  0
  5 21  1  0
  6  7  1  0
  6 22  1  0
  7  8  2  0
  7 23  1  0
  8  9  1  0
  8 20  1  0
  9 10  1  0
  9 24  1  0
 10 11  2  0
 10 12  2  0
 10 13  1  0
 13 19  1  0
 13 14  2  0
 14 15  1  0
 14 25  1  0
 15 16  2  0
 15 26  1  0
 16 17  1  0
 16 18  1  0
 18 19  2  0
 18 27  1  0
 19 28  1  0
 20 29  1  0
M  CHG  2   2   1   3  -1
M  END
>  <i_m_ct_stereo_status>  (25) 
1

>  <s_m_source_file>  (25) 
/var/tmp/pbs.5076255.sched01/tmpsofmo5yl/0au1p7r3z.sdf

>  <i_m_source_file_index>  (25) 
12

>  <i_lp_mmshare_version>  (25) 
48012

>  <i_f3d_flags>  (25) 
0

>  <s_epik_input>  (25) 
Tz1bTitdKFtPLV0pYzFbY0hdW2NIXVtjSF1jKFtjSF0xKVtOSF1TKD1PKSg9TyljMltjSF1bY0hdYyhGKVtjSF1bY0hdMg==

>  <s_epik_cmdline>  (25) 
J2VwaWtfcHl0aG9uJywgJy1waHQnLCAnMi4wJywgJy1waCcsICc3LjAnLCAnLXRuJywgJzgnLCAnLW1hJywgJzIwMCcsICctaW1hZScsICc8aW5maWxlLm1hZT4nLCAnLW9tYWUnLCAnPG91dGZpbGUubWFlPic=

>  <r_epik_Ionization_Penalty>  (25) 
0.219972

>  <r_epik_Ionization_Penalty_Charging>  (25) 
0

>  <r_epik_Ionization_Penalty_Neutral>  (25) 
0.219972

>  <r_epik_State_Penalty>  (25) 
0.210298

>  <r_epik_Charging_Adjusted_Penalty>  (25) 
0.210298

>  <i_epik_Tot_Q>  (25) 
0

>  <i_epik_Tot_abs_Q>  (25) 
2

>  <s_lp_Force_Field>  (25) 
OPLS3e

>  <r_lp_Energy>  (25) 
22.2692

>  <b_lp_Chiralities_Consistent>  (25) 
1

>  <s_lp_Variant>  (25) 
9:0-1

>  <s_i_glide_gridfile>  (25) 
pfpi4k_grid

>  <i_i_glide_lignum>  (25) 
12

>  <i_i_glide_rotatable_bonds>  (25) 
4

>  <r_i_docking_score>  (25) 
-3.34296

>  <r_i_glide_ligand_efficiency>  (25) 
-0.167148

>  <r_i_glide_ligand_efficiency_sa>  (25) 
-0.453709

>  <r_i_glide_ligand_efficiency_ln>  (25) 
-0.836632

>  <r_i_glide_gscore>  (25) 
-3.34296

>  <r_i_glide_lipo>  (25) 
-0.236703

>  <r_i_glide_hbond>  (25) 
-0.113498

>  <r_i_glide_metal>  (25) 
-0

>  <r_i_glide_rewards>  (25) 
-1.38903

>  <r_i_glide_evdw>  (25) 
-21.7718

>  <r_i_glide_ecoul>  (25) 
-4.95515

>  <r_i_glide_erotb>  (25) 
0.62603

>  <r_i_glide_esite>  (25) 
-0.397892

>  <r_i_glide_emodel>  (25) 
-32.7838

>  <r_i_glide_energy>  (25) 
-26.7269

>  <r_i_glide_einternal>  (25) 
2.46008

>  <r_i_glide_intrahb_reward>  (25) 
-0

>  <i_i_glide_confnum>  (25) 
2

>  <i_i_glide_posenum>  (25) 
8

>  <r_i_glide_eff_state_penalty>  (25) 
0

>  <ligand_id>  (25) 
9

>  <original_smiles>  (25) 
O=[N+]([O-])c1cccc(NS(=O)(=O)c2ccc(F)cc2)c1

>  <smiles>  (25) 
[H]c1c([H])c(N([H])S(=O)(=O)c2c([H])c([H])c(F)c([H])c2[H])c([H])c([N+](=O)[O-])c1[H]

$$$$
9:1:0
     RDKit          3D

 28 29  0  0  1  0  0  0  0  0999 V2000
   -0.1503    2.5450   11.5473 O   0  0  0  0  0  0  0  0  0  0  0  0
   -0.3688    1.7435   10.6475 N   0  0  0  0  0  0  0  0  0  0  0  0
    0.0847    0.6034   10.6258 O   0  0  0  0  0  0  0  0  0  0  0  0
   -1.1835    2.1799    9.5021 C   0  0  0  0  0  0  0  0  0  0  0  0
   -2.1011    3.2472    9.6223 C   0  0  0  0  0  0  0  0  0  0  0  0
   -2.8711    3.6418    8.5085 C   0  0  0  0  0  0  0  0  0  0  0  0
   -2.7358    2.9556    7.2774 C   0  0  0  0  0  0  0  0  0  0  0  0
   -1.8402    1.8692    7.1388 C   0  0  0  0  0  0  0  0  0  0  0  0
   -1.7927    1.2234    5.9580 N   0  0  0  0  0  0  0  0  0  0  0  0
   -1.2425   -0.2696    5.6200 S   0  0  0  0  0  0  0  0  0  0  0  0
   -0.5961   -0.9357    6.7574 O   0  0  0  0  0  0  0  0  0  0  0  0
   -2.2308   -1.0602    4.8679 O   0  0  0  0  0  0  0  0  0  0  0  0
    0.0368    0.1581    4.4532 C   0  0  0  0  0  0  0  0  0  0  0  0
    1.3880   -0.0807    4.7767 C   0  0  0  0  0  0  0  0  0  0  0  0
    2.3913    0.1961    3.8292 C   0  0  0  0  0  0  0  0  0  0  0  0
    2.0438    0.7117    2.5653 C   0  0  0  0  0  0  0  0  0  0  0  0
    3.0150    0.9480    1.6567 F   0  0  0  0  0  0  0  0  0  0  0  0
    0.6920    0.9664    2.2457 C   0  0  0  0  0  0  0  0  0  0  0  0
   -0.3145    0.6883    3.1949 C   0  0  0  0  0  0  0  0  0  0  0  0
   -1.0461    1.5202    8.2548 C   0  0  0  0  0  0  0  0  0  0  0  0
   -2.2032    3.7640   10.5649 H   0  0  0  0  0  0  0  0  0  0  0  0
   -3.5688    4.4612    8.6067 H   0  0  0  0  0  0  0  0  0  0  0  0
   -3.3458    3.2708    6.4499 H   0  0  0  0  0  0  0  0  0  0  0  0
    1.6567   -0.4829    5.7365 H   0  0  0  0  0  0  0  0  0  0  0  0
    3.4269   -0.0021    4.0681 H   0  0  0  0  0  0  0  0  0  0  0  0
    0.4287    1.3590    1.2740 H   0  0  0  0  0  0  0  0  0  0  0  0
   -1.3464    0.8710    2.9521 H   0  0  0  0  0  0  0  0  0  0  0  0
   -0.3145    0.7350    8.1831 H   0  0  0  0  0  0  0  0  0  0  0  0
  1  2  2  0
  2  3  1  0
  2  4  1  0
  4 20  2  0
  4  5  1  0
  5  6  2  0
  5 21  1  0
  6  7  1  0
  6 22  1  0
  7  8  2  0
  7 23  1  0
  8  9  1  0
  8 20  1  0
  9 10  1  0
 10 11  2  0
 10 12  2  0
 10 13  1  0
 13 19  1  0
 13 14  2  0
 14 15  1  0
 14 24  1  0
 15 16  2  0
 15 25  1  0
 16 17  1  0
 16 18  1  0
 18 19  2  0
 18 26  1  0
 19 27  1  0
 20 28  1  0
M  CHG  3   2   1   3  -1   9  -1
M  END
>  <i_m_ct_stereo_status>  (26) 
1

>  <s_m_source_file>  (26) 
/var/tmp/pbs.5076255.sched01/tmpsofmo5yl/0au1p7r3z.sdf

>  <i_m_source_file_index>  (26) 
13

>  <i_lp_mmshare_version>  (26) 
48012

>  <i_f3d_flags>  (26) 
0

>  <s_epik_input>  (26) 
Tz1bTitdKFtPLV0pYzFbY0hdW2NIXVtjSF1jKFtjSF0xKVtOSF1TKD1PKSg9TyljMltjSF1bY0hdYyhGKVtjSF1bY0hdMg==

>  <s_epik_cmdline>  (26) 
J2VwaWtfcHl0aG9uJywgJy1waHQnLCAnMi4wJywgJy1waCcsICc3LjAnLCAnLXRuJywgJzgnLCAnLW1hJywgJzIwMCcsICctaW1hZScsICc8aW5maWxlLm1hZT4nLCAnLW9tYWUnLCAnPG91dGZpbGUubWFlPic=

>  <r_epik_Ionization_Penalty>  (26) 
0.693639

>  <r_epik_Ionization_Penalty_Charging>  (26) 
0.693639

>  <r_epik_Ionization_Penalty_Neutral>  (26) 
0

>  <r_epik_State_Penalty>  (26) 
0.715739

>  <r_epik_Charging_Adjusted_Penalty>  (26) 
1.40938

>  <i_epik_Tot_Q>  (26) 
-1

>  <i_epik_Tot_abs_Q>  (26) 
3

>  <s_lp_Force_Field>  (26) 
OPLS3e

>  <r_lp_Energy>  (26) 
27.7796

>  <b_lp_Chiralities_Consistent>  (26) 
1

>  <s_lp_Variant>  (26) 
9:0-2

>  <s_i_glide_gridfile>  (26) 
pfpi4k_grid

>  <i_i_glide_lignum>  (26) 
13

>  <i_i_glide_rotatable_bonds>  (26) 
4

>  <r_i_docking_score>  (26) 
-2.64991

>  <r_i_glide_ligand_efficiency>  (26) 
-0.132495

>  <r_i_glide_ligand_efficiency_sa>  (26) 
-0.359648

>  <r_i_glide_ligand_efficiency_ln>  (26) 
-0.663185

>  <r_i_glide_gscore>  (26) 
-2.64991

>  <r_i_glide_lipo>  (26) 
-0.260609

>  <r_i_glide_hbond>  (26) 
0

>  <r_i_glide_metal>  (26) 
-0

>  <r_i_glide_rewards>  (26) 
-1.52729

>  <r_i_glide_evdw>  (26) 
-20.929

>  <r_i_glide_ecoul>  (26) 
-0.93189

>  <r_i_glide_erotb>  (26) 
0.629769

>  <r_i_glide_esite>  (26) 
-0.30555

>  <r_i_glide_emodel>  (26) 
-25.0692

>  <r_i_glide_energy>  (26) 
-21.8609

>  <r_i_glide_einternal>  (26) 
4.01961

>  <r_i_glide_intrahb_reward>  (26) 
-0

>  <i_i_glide_confnum>  (26) 
2

>  <i_i_glide_posenum>  (26) 
34

>  <r_i_glide_eff_state_penalty>  (26) 
0

>  <ligand_id>  (26) 
9

>  <original_smiles>  (26) 
O=[N+]([O-])c1cccc(NS(=O)(=O)c2ccc(F)cc2)c1

>  <smiles>  (26) 
[H]c1c([H])c([N-]S(=O)(=O)c2c([H])c([H])c(F)c([H])c2[H])c([H])c([N+](=O)[O-])c1[H]

$$$$
9:1:1
     RDKit          3D

 28 29  0  0  1  0  0  0  0  0999 V2000
    5.0071   -2.5288    4.2213 O   0  0  0  0  0  0  0  0  0  0  0  0
    4.8043   -1.7784    3.2764 N   0  0  0  0  0  0  0  0  0  0  0  0
    5.0120   -0.5671    3.3232 O   0  0  0  0  0  0  0  0  0  0  0  0
    4.2921   -2.3608    2.0187 C   0  0  0  0  0  0  0  0  0  0  0  0
    3.9069   -1.5398    0.9333 C   0  0  0  0  0  0  0  0  0  0  0  0
    3.4204   -2.1249   -0.2545 C   0  0  0  0  0  0  0  0  0  0  0  0
    3.3272   -3.5267   -0.3657 C   0  0  0  0  0  0  0  0  0  0  0  0
    3.7189   -4.3757    0.7013 C   0  0  0  0  0  0  0  0  0  0  0  0
    3.6605   -5.7117    0.5333 N   0  0  0  0  0  0  0  0  0  0  0  0
    3.8995   -6.8972    1.6183 S   0  0  0  0  0  0  0  0  0  0  0  0
    4.0931   -8.2019    0.9749 O   0  0  0  0  0  0  0  0  0  0  0  0
    4.8058   -6.5477    2.7227 O   0  0  0  0  0  0  0  0  0  0  0  0
    2.2433   -6.9252    2.3187 C   0  0  0  0  0  0  0  0  0  0  0  0
    1.3126   -7.8662    1.8416 C   0  0  0  0  0  0  0  0  0  0  0  0
    0.0279   -7.9337    2.4086 C   0  0  0  0  0  0  0  0  0  0  0  0
   -0.3266   -7.0545    3.4512 C   0  0  0  0  0  0  0  0  0  0  0  0
   -1.5661   -7.1159    3.9950 F   0  0  0  0  0  0  0  0  0  0  0  0
    0.6012   -6.1034    3.9193 C   0  0  0  0  0  0  0  0  0  0  0  0
    1.8883   -6.0363    3.3545 C   0  0  0  0  0  0  0  0  0  0  0  0
    4.1841   -3.7623    1.8895 C   0  0  0  0  0  0  0  0  0  0  0  0
    3.9709   -0.4596    1.0169 H   0  0  0  0  0  0  0  0  0  0  0  0
    3.1079   -1.4869   -1.0724 H   0  0  0  0  0  0  0  0  0  0  0  0
    2.9562   -3.9430   -1.2899 H   0  0  0  0  0  0  0  0  0  0  0  0
    1.5872   -8.5442    1.0494 H   0  0  0  0  0  0  0  0  0  0  0  0
   -0.6742   -8.6726    2.0529 H   0  0  0  0  0  0  0  0  0  0  0  0
    0.3238   -5.4340    4.7201 H   0  0  0  0  0  0  0  0  0  0  0  0
    2.5947   -5.3085    3.7161 H   0  0  0  0  0  0  0  0  0  0  0  0
    4.4883   -4.3638    2.7212 H   0  0  0  0  0  0  0  0  0  0  0  0
  1  2  2  0
  2  3  1  0
  2  4  1  0
  4 20  2  0
  4  5  1  0
  5  6  2  0
  5 21  1  0
  6  7  1  0
  6 22  1  0
  7  8  2  0
  7 23  1  0
  8  9  1  0
  8 20  1  0
  9 10  1  0
 10 11  2  0
 10 12  2  0
 10 13  1  0
 13 19  1  0
 13 14  2  0
 14 15  1  0
 14 24  1  0
 15 16  2  0
 15 25  1  0
 16 17  1  0
 16 18  1  0
 18 19  2  0
 18 26  1  0
 19 27  1  0
 20 28  1  0
M  CHG  3   2   1   3  -1   9  -1
M  END
>  <i_m_ct_stereo_status>  (27) 
1

>  <s_m_source_file>  (27) 
/var/tmp/pbs.5076255.sched01/tmpsofmo5yl/0au1p7r3z.sdf

>  <i_m_source_file_index>  (27) 
13

>  <i_lp_mmshare_version>  (27) 
48012

>  <i_f3d_flags>  (27) 
0

>  <s_epik_input>  (27) 
Tz1bTitdKFtPLV0pYzFbY0hdW2NIXVtjSF1jKFtjSF0xKVtOSF1TKD1PKSg9TyljMltjSF1bY0hdYyhGKVtjSF1bY0hdMg==

>  <s_epik_cmdline>  (27) 
J2VwaWtfcHl0aG9uJywgJy1waHQnLCAnMi4wJywgJy1waCcsICc3LjAnLCAnLXRuJywgJzgnLCAnLW1hJywgJzIwMCcsICctaW1hZScsICc8aW5maWxlLm1hZT4nLCAnLW9tYWUnLCAnPG91dGZpbGUubWFlPic=

>  <r_epik_Ionization_Penalty>  (27) 
0.693639

>  <r_epik_Ionization_Penalty_Charging>  (27) 
0.693639

>  <r_epik_Ionization_Penalty_Neutral>  (27) 
0

>  <r_epik_State_Penalty>  (27) 
0.715739

>  <r_epik_Charging_Adjusted_Penalty>  (27) 
1.40938

>  <i_epik_Tot_Q>  (27) 
-1

>  <i_epik_Tot_abs_Q>  (27) 
3

>  <s_lp_Force_Field>  (27) 
OPLS3e

>  <r_lp_Energy>  (27) 
27.7796

>  <b_lp_Chiralities_Consistent>  (27) 
1

>  <s_lp_Variant>  (27) 
9:0-2

>  <s_i_glide_gridfile>  (27) 
pfpi4k_grid

>  <i_i_glide_lignum>  (27) 
13

>  <i_i_glide_rotatable_bonds>  (27) 
4

>  <r_i_docking_score>  (27) 
-2.18244

>  <r_i_glide_ligand_efficiency>  (27) 
-0.109122

>  <r_i_glide_ligand_efficiency_sa>  (27) 
-0.296203

>  <r_i_glide_ligand_efficiency_ln>  (27) 
-0.546193

>  <r_i_glide_gscore>  (27) 
-2.18244

>  <r_i_glide_lipo>  (27) 
-0.0436316

>  <r_i_glide_hbond>  (27) 
0

>  <r_i_glide_metal>  (27) 
-0

>  <r_i_glide_rewards>  (27) 
-1.54982

>  <r_i_glide_evdw>  (27) 
-19.8607

>  <r_i_glide_ecoul>  (27) 
-1.02662

>  <r_i_glide_erotb>  (27) 
0.629769

>  <r_i_glide_esite>  (27) 
-0.0717326

>  <r_i_glide_emodel>  (27) 
-25.014

>  <r_i_glide_energy>  (27) 
-20.8873

>  <r_i_glide_einternal>  (27) 
0.379653

>  <r_i_glide_intrahb_reward>  (27) 
-0

>  <i_i_glide_confnum>  (27) 
5

>  <i_i_glide_posenum>  (27) 
4

>  <r_i_glide_eff_state_penalty>  (27) 
0

>  <ligand_id>  (27) 
9

>  <original_smiles>  (27) 
O=[N+]([O-])c1cccc(NS(=O)(=O)c2ccc(F)cc2)c1

>  <smiles>  (27) 
[H]c1c([H])c([N-]S(=O)(=O)c2c([H])c([H])c(F)c([H])c2[H])c([H])c([N+](=O)[O-])c1[H]

$$$$
9:1:2
     RDKit          3D

 28 29  0  0  1  0  0  0  0  0999 V2000
   -2.3887    2.5815    8.3807 O   0  0  0  0  0  0  0  0  0  0  0  0
   -1.5550    3.3588    7.9183 N   0  0  0  0  0  0  0  0  0  0  0  0
   -0.7213    3.9411    8.5972 O   0  0  0  0  0  0  0  0  0  0  0  0
   -1.5620    3.6030    6.4577 C   0  0  0  0  0  0  0  0  0  0  0  0
   -2.5883    3.0857    5.6462 C   0  0  0  0  0  0  0  0  0  0  0  0
   -2.5907    3.3197    4.2551 C   0  0  0  0  0  0  0  0  0  0  0  0
   -1.5763    4.0922    3.6722 C   0  0  0  0  0  0  0  0  0  0  0  0
   -0.5337    4.6329    4.4611 C   0  0  0  0  0  0  0  0  0  0  0  0
    0.4545    5.3146    3.8566 N   0  0  0  0  0  0  0  0  0  0  0  0
    2.0224    5.4456    4.3034 S   0  0  0  0  0  0  0  0  0  0  0  0
    2.8529    6.1554    3.3242 O   0  0  0  0  0  0  0  0  0  0  0  0
    2.2063    5.8022    5.7248 O   0  0  0  0  0  0  0  0  0  0  0  0
    2.4714    3.7035    4.1328 C   0  0  0  0  0  0  0  0  0  0  0  0
    2.2414    3.0344    2.9120 C   0  0  0  0  0  0  0  0  0  0  0  0
    2.6043    1.6797    2.7723 C   0  0  0  0  0  0  0  0  0  0  0  0
    3.1957    0.9987    3.8560 C   0  0  0  0  0  0  0  0  0  0  0  0
    3.5758   -0.2968    3.7183 F   0  0  0  0  0  0  0  0  0  0  0  0
    3.4079    1.6663    5.0803 C   0  0  0  0  0  0  0  0  0  0  0  0
    3.0384    3.0170    5.2252 C   0  0  0  0  0  0  0  0  0  0  0  0
   -0.5457    4.3627    5.8520 C   0  0  0  0  0  0  0  0  0  0  0  0
   -3.4004    2.5416    6.1058 H   0  0  0  0  0  0  0  0  0  0  0  0
   -3.3933    2.9154    3.6473 H   0  0  0  0  0  0  0  0  0  0  0  0
   -1.5833    4.2398    2.6005 H   0  0  0  0  0  0  0  0  0  0  0  0
    1.7970    3.5637    2.0835 H   0  0  0  0  0  0  0  0  0  0  0  0
    2.4461    1.1711    1.8317 H   0  0  0  0  0  0  0  0  0  0  0  0
    3.8608    1.1434    5.9102 H   0  0  0  0  0  0  0  0  0  0  0  0
    3.1905    3.5273    6.1630 H   0  0  0  0  0  0  0  0  0  0  0  0
    0.2335    4.7288    6.4940 H   0  0  0  0  0  0  0  0  0  0  0  0
  1  2  2  0
  2  3  1  0
  2  4  1  0
  4 20  2  0
  4  5  1  0
  5  6  2  0
  5 21  1  0
  6  7  1  0
  6 22  1  0
  7  8  2  0
  7 23  1  0
  8  9  1  0
  8 20  1  0
  9 10  1  0
 10 11  2  0
 10 12  2  0
 10 13  1  0
 13 19  1  0
 13 14  2  0
 14 15  1  0
 14 24  1  0
 15 16  2  0
 15 25  1  0
 16 17  1  0
 16 18  1  0
 18 19  2  0
 18 26  1  0
 19 27  1  0
 20 28  1  0
M  CHG  3   2   1   3  -1   9  -1
M  END
>  <i_m_ct_stereo_status>  (28) 
1

>  <s_m_source_file>  (28) 
/var/tmp/pbs.5076255.sched01/tmpsofmo5yl/0au1p7r3z.sdf

>  <i_m_source_file_index>  (28) 
13

>  <i_lp_mmshare_version>  (28) 
48012

>  <i_f3d_flags>  (28) 
0

>  <s_epik_input>  (28) 
Tz1bTitdKFtPLV0pYzFbY0hdW2NIXVtjSF1jKFtjSF0xKVtOSF1TKD1PKSg9TyljMltjSF1bY0hdYyhGKVtjSF1bY0hdMg==

>  <s_epik_cmdline>  (28) 
J2VwaWtfcHl0aG9uJywgJy1waHQnLCAnMi4wJywgJy1waCcsICc3LjAnLCAnLXRuJywgJzgnLCAnLW1hJywgJzIwMCcsICctaW1hZScsICc8aW5maWxlLm1hZT4nLCAnLW9tYWUnLCAnPG91dGZpbGUubWFlPic=

>  <r_epik_Ionization_Penalty>  (28) 
0.693639

>  <r_epik_Ionization_Penalty_Charging>  (28) 
0.693639

>  <r_epik_Ionization_Penalty_Neutral>  (28) 
0

>  <r_epik_State_Penalty>  (28) 
0.715739

>  <r_epik_Charging_Adjusted_Penalty>  (28) 
1.40938

>  <i_epik_Tot_Q>  (28) 
-1

>  <i_epik_Tot_abs_Q>  (28) 
3

>  <s_lp_Force_Field>  (28) 
OPLS3e

>  <r_lp_Energy>  (28) 
27.7796

>  <b_lp_Chiralities_Consistent>  (28) 
1

>  <s_lp_Variant>  (28) 
9:0-2

>  <s_i_glide_gridfile>  (28) 
pfpi4k_grid

>  <i_i_glide_lignum>  (28) 
13

>  <i_i_glide_rotatable_bonds>  (28) 
4

>  <r_i_docking_score>  (28) 
-2.07791

>  <r_i_glide_ligand_efficiency>  (28) 
-0.103895

>  <r_i_glide_ligand_efficiency_sa>  (28) 
-0.282016

>  <r_i_glide_ligand_efficiency_ln>  (28) 
-0.520032

>  <r_i_glide_gscore>  (28) 
-2.07791

>  <r_i_glide_lipo>  (28) 
-0.0626681

>  <r_i_glide_hbond>  (28) 
0

>  <r_i_glide_metal>  (28) 
-0

>  <r_i_glide_rewards>  (28) 
-1.41373

>  <r_i_glide_evdw>  (28) 
-18.8585

>  <r_i_glide_ecoul>  (28) 
-1.79967

>  <r_i_glide_erotb>  (28) 
0.629769

>  <r_i_glide_esite>  (28) 
-0.018399

>  <r_i_glide_emodel>  (28) 
-23.9101

>  <r_i_glide_energy>  (28) 
-20.6582

>  <r_i_glide_einternal>  (28) 
1.84387

>  <r_i_glide_intrahb_reward>  (28) 
-0

>  <i_i_glide_confnum>  (28) 
3

>  <i_i_glide_posenum>  (28) 
16

>  <r_i_glide_eff_state_penalty>  (28) 
0

>  <ligand_id>  (28) 
9

>  <original_smiles>  (28) 
O=[N+]([O-])c1cccc(NS(=O)(=O)c2ccc(F)cc2)c1

>  <smiles>  (28) 
[H]c1c([H])c([N-]S(=O)(=O)c2c([H])c([H])c(F)c([H])c2[H])c([H])c([N+](=O)[O-])c1[H]

$$$$
10:0:0
     RDKit          3D

 98103  0  0  1  0  0  0  0  0999 V2000
    0.5625   -6.0500    6.3448 C   0  0  0  0  0  0  0  0  0  0  0  0
    0.6714   -7.2635    5.7599 C   0  0  0  0  0  0  0  0  0  0  0  0
    0.1699   -7.3631    4.3001 C   0  0  2  0  0  0  0  0  0  0  0  0
   -0.5582   -8.6329    3.8797 C   0  0  0  0  0  0  0  0  0  0  0  0
    0.2610   -9.9148    3.9495 C   0  0  0  0  0  0  0  0  0  0  0  0
    1.7957   -9.7990    4.1486 C   0  0  1  0  0  0  0  0  0  0  0  0
    2.2227  -11.2833    3.9460 C   0  0  0  0  0  0  0  0  0  0  0  0
    2.3725   -8.9418    2.9842 C   0  0  0  0  0  0  0  0  0  0  0  0
    2.3763   -7.3836    3.1442 C   0  0  2  0  0  0  0  0  0  0  0  0
    1.0409   -6.8812    3.2595 O   0  0  0  0  0  0  0  0  0  0  0  0
    3.2405   -6.5585    2.1143 C   0  0  1  0  0  0  0  0  0  0  0  0
    2.3264   -6.2572    0.8967 C   0  0  0  0  0  0  0  0  0  0  0  0
    3.5710   -5.1324    2.6648 C   0  0  0  0  0  0  0  0  0  0  0  0
    2.9138   -4.5428    3.6994 C   0  0  0  0  0  0  0  0  0  0  0  0
    3.1935   -3.1658    4.2888 C   0  0  0  0  0  0  0  0  0  0  0  0
    4.2431   -2.3757    3.5052 C   0  0  0  0  0  0  0  0  0  0  0  0
    4.8541   -1.4496    4.0335 O   0  0  0  0  0  0  0  0  0  0  0  0
    4.4573   -2.7794    2.0372 C   0  0  0  0  0  0  0  0  0  0  0  0
    3.1796   -2.4069    1.2415 C   0  0  0  0  0  0  0  0  0  0  0  0
    5.6179   -1.9615    1.4062 C   0  0  0  0  0  0  0  0  0  0  0  0
    4.6976   -4.3325    1.9761 C   0  0  1  0  0  0  0  0  0  0  0  0
    6.0891   -4.8143    2.4901 C   0  0  0  0  0  0  0  0  0  0  0  0
    6.1768   -5.3483    3.9548 C   0  0  0  0  0  0  0  0  0  0  0  0
    7.0719   -6.5915    4.1795 C   0  0  1  0  0  0  0  0  0  0  0  0
    8.4605   -6.3430    3.5273 C   0  0  0  0  0  0  0  0  0  0  0  0
    7.2651   -6.7302    5.7120 C   0  0  0  0  0  0  0  0  0  0  0  0
    6.0792   -7.5307    6.2558 C   0  0  0  0  0  0  0  0  0  0  0  0
    5.4660   -8.2749    5.0553 C   0  0  2  0  0  0  0  0  0  0  0  0
    4.9564   -9.7536    5.3483 C   0  0  1  0  0  0  0  0  0  0  0  0
    5.9763  -10.6590    6.0869 C   0  0  0  0  0  0  0  0  0  0  0  0
    3.5982   -9.9148    6.1410 C   0  0  0  0  0  0  0  0  0  0  0  0
    2.3005   -9.2429    5.5589 C   0  0  2  0  0  0  0  0  0  0  0  0
    1.2549   -8.5140    6.5030 C   0  0  0  0  0  0  0  0  0  0  0  0
    1.9646   -8.0639    7.8146 C   0  0  0  0  0  0  0  0  0  0  0  0
    0.1186   -9.4315    7.0167 C   0  0  0  0  0  0  0  0  0  0  0  0
    6.3841   -7.9675    3.8135 C   0  0  2  0  0  0  0  0  0  0  0  0
    7.5111   -9.0411    3.7459 C   0  0  0  0  0  0  0  0  0  0  0  0
    5.6790   -8.1364    2.4001 C   0  0  0  0  0  0  0  0  0  0  0  0
    4.5568   -7.3304    1.5956 C   0  0  1  0  0  0  0  0  0  0  0  0
    4.2090   -8.2825    0.6037 O   0  0  0  0  0  0  0  0  0  0  0  0
    0.8661   -5.8307    7.3553 H   0  0  0  0  0  0  0  0  0  0  0  0
    0.1452   -5.2181    5.7989 H   0  0  0  0  0  0  0  0  0  0  0  0
   -0.6312   -6.6256    4.2529 H   0  0  0  0  0  0  0  0  0  0  0  0
   -1.4738   -8.7554    4.4591 H   0  0  0  0  0  0  0  0  0  0  0  0
   -0.9050   -8.4998    2.8521 H   0  0  0  0  0  0  0  0  0  0  0  0
   -0.1615  -10.5855    4.6958 H   0  0  0  0  0  0  0  0  0  0  0  0
    0.0544  -10.4393    3.0136 H   0  0  0  0  0  0  0  0  0  0  0  0
    3.2914  -11.4543    3.9054 H   0  0  0  0  0  0  0  0  0  0  0  0
    1.8433  -11.6926    3.0086 H   0  0  0  0  0  0  0  0  0  0  0  0
    1.8300  -11.9156    4.7440 H   0  0  0  0  0  0  0  0  0  0  0  0
    3.3881   -9.2775    2.8895 H   0  0  0  0  0  0  0  0  0  0  0  0
    1.8863   -9.2121    2.0474 H   0  0  0  0  0  0  0  0  0  0  0  0
    2.8406   -7.0536    4.0481 H   0  0  0  0  0  0  0  0  0  0  0  0
    1.8217   -7.1512    0.5381 H   0  0  0  0  0  0  0  0  0  0  0  0
    2.8767   -5.8222    0.0632 H   0  0  0  0  0  0  0  0  0  0  0  0
    1.5320   -5.5611    1.1565 H   0  0  0  0  0  0  0  0  0  0  0  0
    2.1093   -5.0349    4.2142 H   0  0  0  0  0  0  0  0  0  0  0  0
    2.2717   -2.5861    4.3067 H   0  0  0  0  0  0  0  0  0  0  0  0
    3.5279   -3.2727    5.3225 H   0  0  0  0  0  0  0  0  0  0  0  0
    3.2673   -2.6843    0.1900 H   0  0  0  0  0  0  0  0  0  0  0  0
    2.9828   -1.3335    1.2794 H   0  0  0  0  0  0  0  0  0  0  0  0
    2.2870   -2.8974    1.6295 H   0  0  0  0  0  0  0  0  0  0  0  0
    5.9212   -2.3746    0.4447 H   0  0  0  0  0  0  0  0  0  0  0  0
    6.5025   -1.9182    2.0435 H   0  0  0  0  0  0  0  0  0  0  0  0
    5.3267   -0.9235    1.2367 H   0  0  0  0  0  0  0  0  0  0  0  0
    4.6602   -4.5498    0.9069 H   0  0  0  0  0  0  0  0  0  0  0  0
    6.4953   -5.5630    1.8222 H   0  0  0  0  0  0  0  0  0  0  0  0
    6.8186   -4.0342    2.3367 H   0  0  0  0  0  0  0  0  0  0  0  0
    6.5682   -4.5433    4.5733 H   0  0  0  0  0  0  0  0  0  0  0  0
    5.2181   -5.5366    4.4257 H   0  0  0  0  0  0  0  0  0  0  0  0
    9.2301   -7.0193    3.8996 H   0  0  0  0  0  0  0  0  0  0  0  0
    8.8236   -5.3449    3.7590 H   0  0  0  0  0  0  0  0  0  0  0  0
    8.4429   -6.4462    2.4436 H   0  0  0  0  0  0  0  0  0  0  0  0
    8.1780   -7.2835    5.9290 H   0  0  0  0  0  0  0  0  0  0  0  0
    7.3778   -5.7763    6.2280 H   0  0  0  0  0  0  0  0  0  0  0  0
    6.4122   -8.1862    7.0560 H   0  0  0  0  0  0  0  0  0  0  0  0
    5.3381   -6.8581    6.6880 H   0  0  0  0  0  0  0  0  0  0  0  0
    4.6113   -7.6744    4.8089 H   0  0  0  0  0  0  0  0  0  0  0  0
    4.8377  -10.1990    4.3698 H   0  0  0  0  0  0  0  0  0  0  0  0
    6.0879  -10.3786    7.1353 H   0  0  0  0  0  0  0  0  0  0  0  0
    6.9716  -10.6746    5.6534 H   0  0  0  0  0  0  0  0  0  0  0  0
    5.6330  -11.6939    6.0778 H   0  0  0  0  0  0  0  0  0  0  0  0
    3.3897  -10.9713    6.3100 H   0  0  0  0  0  0  0  0  0  0  0  0
    3.8311   -9.5453    7.1305 H   0  0  0  0  0  0  0  0  0  0  0  0
    2.8317   -8.3481    5.3960 H   0  0  0  0  0  0  0  0  0  0  0  0
    2.2968   -8.9213    8.4019 H   0  0  0  0  0  0  0  0  0  0  0  0
    1.2988   -7.5316    8.4923 H   0  0  0  0  0  0  0  0  0  0  0  0
    2.8256   -7.4221    7.6191 H   0  0  0  0  0  0  0  0  0  0  0  0
    0.4640  -10.4544    7.0752 H   0  0  0  0  0  0  0  0  0  0  0  0
   -0.7770   -9.4361    6.4070 H   0  0  0  0  0  0  0  0  0  0  0  0
   -0.2244   -9.1497    8.0124 H   0  0  0  0  0  0  0  0  0  0  0  0
    7.1097  -10.0358    3.5570 H   0  0  0  0  0  0  0  0  0  0  0  0
    8.1101   -9.0890    4.6556 H   0  0  0  0  0  0  0  0  0  0  0  0
    8.2087   -8.8563    2.9267 H   0  0  0  0  0  0  0  0  0  0  0  0
    6.5080   -8.1094    1.6915 H   0  0  0  0  0  0  0  0  0  0  0  0
    5.3990   -9.1881    2.3799 H   0  0  0  0  0  0  0  0  0  0  0  0
    5.0672   -6.6520    0.9242 H   0  0  0  0  0  0  0  0  0  0  0  0
    3.8705   -9.0615    1.0241 H   0  0  0  0  0  0  0  0  0  0  0  0
  1  2  2  0
  1 41  1  0
  1 42  1  0
  2 33  1  0
  2  3  1  0
  3 10  1  0
  3  4  1  0
  3 43  1  1
  4  5  1  0
  4 44  1  0
  4 45  1  0
  5  6  1  0
  5 46  1  0
  5 47  1  0
  6 32  1  0
  6  7  1  6
  6  8  1  0
  7 48  1  0
  7 49  1  0
  7 50  1  0
  8  9  1  0
  8 51  1  0
  8 52  1  0
  9 10  1  0
  9 11  1  0
  9 53  1  1
 11 39  1  0
 11 12  1  6
 11 13  1  0
 12 54  1  0
 12 55  1  0
 12 56  1  0
 13 21  1  0
 13 14  2  0
 14 15  1  0
 14 57  1  0
 15 16  1  0
 15 58  1  0
 15 59  1  0
 16 17  2  0
 16 18  1  0
 18 19  1  0
 18 20  1  0
 18 21  1  0
 19 60  1  0
 19 61  1  0
 19 62  1  0
 20 63  1  0
 20 64  1  0
 20 65  1  0
 21 22  1  0
 21 66  1  6
 22 23  1  0
 22 67  1  0
 22 68  1  0
 23 24  1  0
 23 69  1  0
 23 70  1  0
 24 36  1  0
 24 25  1  6
 24 26  1  0
 25 71  1  0
 25 72  1  0
 25 73  1  0
 26 27  1  0
 26 74  1  0
 26 75  1  0
 27 28  1  0
 27 76  1  0
 27 77  1  0
 28 29  1  0
 28 36  1  0
 28 78  1  6
 29 30  1  0
 29 31  1  0
 29 79  1  6
 30 80  1  0
 30 81  1  0
 30 82  1  0
 31 32  1  0
 31 83  1  0
 31 84  1  0
 32 33  1  0
 32 85  1  6
 33 34  1  0
 33 35  1  0
 34 86  1  0
 34 87  1  0
 34 88  1  0
 35 89  1  0
 35 90  1  0
 35 91  1  0
 36 37  1  6
 36 38  1  0
 37 92  1  0
 37 93  1  0
 37 94  1  0
 38 39  1  0
 38 95  1  0
 38 96  1  0
 39 40  1  0
 39 97  1  6
 40 98  1  0
M  END
>  <i_m_ct_stereo_status>  (29) 
1

>  <s_m_source_file>  (29) 
/var/tmp/pbs.5076255.sched01/tmpsofmo5yl/0au1p7r3z.sdf

>  <i_m_source_file_index>  (29) 
14

>  <i_lp_mmshare_version>  (29) 
48012

>  <i_f3d_flags>  (29) 
0

>  <s_epik_input>  (29) 
W0NIM11DMShbQ0gzXSlDKD1bQ0gyXSlbQ0BIXShbQ0gyXVtDSDJdMilPW0NAQEhdKFtDSDJdMylbQ0BdKFtDSDNdKShbQ0BASF0oW0NIMl00KVtPSF0pQyg9W0NIXVtDSDJdQyg9TylDNShbQ0gzXSlbQ0gzXSlbQ0BASF01W0NIMl1bQ0gyXVtDQEBdKFtDSDNdKShbQ0gyXVtDSDJdNilbQ0BAXTQoW0NIM10pW0NASF02W0NAQEhdKFtDSDNdKVtDSDJdW0NASF0xW0NAQF0yM1tDSDNd

>  <s_epik_cmdline>  (29) 
J2VwaWtfcHl0aG9uJywgJy1waHQnLCAnMi4wJywgJy1waCcsICc3LjAnLCAnLXRuJywgJzgnLCAnLW1hJywgJzIwMCcsICctaW1hZScsICc8aW5maWxlLm1hZT4nLCAnLW9tYWUnLCAnPG91dGZpbGUubWFlPic=

>  <r_lp_tautomer_probability>  (29) 
1

>  <r_epik_Ionization_Penalty>  (29) 
2.26034e-07

>  <r_epik_Ionization_Penalty_Charging>  (29) 
0

>  <r_epik_Ionization_Penalty_Neutral>  (29) 
2.26034e-07

>  <r_epik_State_Penalty>  (29) 
-0

>  <r_epik_Charging_Adjusted_Penalty>  (29) 
0

>  <i_epik_Tot_Q>  (29) 
0

>  <i_epik_Tot_abs_Q>  (29) 
0

>  <s_lp_Force_Field>  (29) 
OPLS3e

>  <r_lp_Energy>  (29) 
162.017

>  <b_lp_Chiralities_Consistent>  (29) 
1

>  <s_lp_Variant>  (29) 
10:0-1

>  <s_i_glide_gridfile>  (29) 
pfpi4k_grid

>  <i_i_glide_lignum>  (29) 
14

>  <i_i_glide_rotatable_bonds>  (29) 
1

>  <r_i_docking_score>  (29) 
-2.1049

>  <r_i_glide_ligand_efficiency>  (29) 
-0.0526225

>  <r_i_glide_ligand_efficiency_sa>  (29) 
-0.179966

>  <r_i_glide_ligand_efficiency_ln>  (29) 
-0.448913

>  <r_i_glide_gscore>  (29) 
-2.1049

>  <r_i_glide_lipo>  (29) 
-0.303157

>  <r_i_glide_hbond>  (29) 
0

>  <r_i_glide_metal>  (29) 
-0

>  <r_i_glide_rewards>  (29) 
-0.0107905

>  <r_i_glide_evdw>  (29) 
-29.354

>  <r_i_glide_ecoul>  (29) 
-2.15501

>  <r_i_glide_erotb>  (29) 
0

>  <r_i_glide_esite>  (29) 
0

>  <r_i_glide_emodel>  (29) 
-35.7329

>  <r_i_glide_energy>  (29) 
-31.509

>  <r_i_glide_einternal>  (29) 
0.155545

>  <r_i_glide_intrahb_reward>  (29) 
-0

>  <i_i_glide_confnum>  (29) 
2

>  <i_i_glide_posenum>  (29) 
13

>  <r_i_glide_eff_state_penalty>  (29) 
0

>  <ligand_id>  (29) 
10

>  <original_smiles>  (29) 
C=C1C2CCC3(C)CC(O2)C2(C)C4=CCC(=O)C(C)(C)C4CCC4(C)CCC(C(C)CC3C1(C)C)C4(C)CC2O

>  <smiles>  (29) 
[H]OC1([H])C([H])([H])C2(C([H])([H])[H])C3([H])C([H])([H])C([H])([H])C2(C([H])([H])[H])C([H])([H])C([H])([H])C2([H])C(=C([H])C([H])([H])C(=O)C2(C([H])([H])[H])C([H])([H])[H])C1(C([H])([H])[H])C1([H])OC2([H])C(=C([H])[H])C(C([H])([H])[H])(C([H])([H])[H])C([H])(C([H])([H])C3([H])C([H])([H])[H])C(C([H])([H])[H])(C([H])([H])C2([H])[H])C1([H])[H]

$$$$
10:0:1
     RDKit          3D

 98103  0  0  1  0  0  0  0  0999 V2000
    2.0092   -3.4320    6.0100 C   0  0  0  0  0  0  0  0  0  0  0  0
    1.6888   -4.7445    6.0995 C   0  0  0  0  0  0  0  0  0  0  0  0
    0.6653   -5.2580    5.0615 C   0  0  2  0  0  0  0  0  0  0  0  0
   -0.3579   -6.2798    5.5295 C   0  0  0  0  0  0  0  0  0  0  0  0
    0.2152   -7.6092    6.0201 C   0  0  0  0  0  0  0  0  0  0  0  0
    1.6989   -7.9278    5.7250 C   0  0  1  0  0  0  0  0  0  0  0  0
    1.7623   -9.4176    6.1783 C   0  0  0  0  0  0  0  0  0  0  0  0
    1.9175   -7.8538    4.1876 C   0  0  0  0  0  0  0  0  0  0  0  0
    2.2352   -6.4622    3.5447 C   0  0  2  0  0  0  0  0  0  0  0  0
    1.1404   -5.5598    3.7356 O   0  0  0  0  0  0  0  0  0  0  0  0
    2.7667   -6.4611    2.0596 C   0  0  1  0  0  0  0  0  0  0  0  0
    1.5157   -6.4252    1.1429 C   0  0  0  0  0  0  0  0  0  0  0  0
    3.5140   -5.1226    1.7195 C   0  0  0  0  0  0  0  0  0  0  0  0
    3.3996   -3.9841    2.4536 C   0  0  0  0  0  0  0  0  0  0  0  0
    4.1019   -2.6547    2.1901 C   0  0  0  0  0  0  0  0  0  0  0  0
    4.8836   -2.6369    0.8782 C   0  0  0  0  0  0  0  0  0  0  0  0
    5.7934   -1.8245    0.6968 O   0  0  0  0  0  0  0  0  0  0  0  0
    4.4602   -3.6511   -0.1942 C   0  0  0  0  0  0  0  0  0  0  0  0
    3.0516   -3.2525   -0.7065 C   0  0  0  0  0  0  0  0  0  0  0  0
    5.4069   -3.5882   -1.4211 C   0  0  0  0  0  0  0  0  0  0  0  0
    4.4156   -5.0788    0.4641 C   0  0  1  0  0  0  0  0  0  0  0  0
    5.8153   -5.7058    0.7697 C   0  0  0  0  0  0  0  0  0  0  0  0
    6.3565   -5.5905    2.2194 C   0  0  0  0  0  0  0  0  0  0  0  0
    7.0232   -6.8657    2.7999 C   0  0  1  0  0  0  0  0  0  0  0  0
    8.0727   -7.3649    1.7810 C   0  0  0  0  0  0  0  0  0  0  0  0
    7.7651   -6.4384    4.0920 C   0  0  0  0  0  0  0  0  0  0  0  0
    6.7611   -6.5115    5.2445 C   0  0  0  0  0  0  0  0  0  0  0  0
    5.6236   -7.4370    4.7739 C   0  0  2  0  0  0  0  0  0  0  0  0
    5.0337   -8.4167    5.8799 C   0  0  1  0  0  0  0  0  0  0  0  0
    6.0939   -9.2171    6.6813 C   0  0  0  0  0  0  0  0  0  0  0  0
    4.0727   -7.7937    6.9685 C   0  0  0  0  0  0  0  0  0  0  0  0
    2.7822   -7.0400    6.4882 C   0  0  2  0  0  0  0  0  0  0  0  0
    2.3013   -5.7003    7.1837 C   0  0  0  0  0  0  0  0  0  0  0  0
    3.5173   -5.0035    7.8657 C   0  0  0  0  0  0  0  0  0  0  0  0
    1.3254   -5.9286    8.3681 C   0  0  0  0  0  0  0  0  0  0  0  0
    6.0330   -7.9758    3.3516 C   0  0  2  0  0  0  0  0  0  0  0  0
    6.8614   -9.2865    3.5413 C   0  0  0  0  0  0  0  0  0  0  0  0
    4.8252   -8.4756    2.4452 C   0  0  0  0  0  0  0  0  0  0  0  0
    3.6318   -7.7544    1.6705 C   0  0  1  0  0  0  0  0  0  0  0  0
    2.7486   -8.8377    1.4125 O   0  0  0  0  0  0  0  0  0  0  0  0
    2.7021   -2.9287    6.6603 H   0  0  0  0  0  0  0  0  0  0  0  0
    1.5583   -2.8125    5.2504 H   0  0  0  0  0  0  0  0  0  0  0  0
    0.0380   -4.3915    4.8570 H   0  0  0  0  0  0  0  0  0  0  0  0
   -0.9955   -5.8456    6.3007 H   0  0  0  0  0  0  0  0  0  0  0  0
   -1.0375   -6.4780    4.6975 H   0  0  0  0  0  0  0  0  0  0  0  0
   -0.0008   -7.7509    7.0775 H   0  0  0  0  0  0  0  0  0  0  0  0
   -0.4126   -8.3687    5.5478 H   0  0  0  0  0  0  0  0  0  0  0  0
    2.6911   -9.9265    5.9534 H   0  0  0  0  0  0  0  0  0  0  0  0
    0.9936  -10.0256    5.6980 H   0  0  0  0  0  0  0  0  0  0  0  0
    1.6025   -9.5138    7.2533 H   0  0  0  0  0  0  0  0  0  0  0  0
    2.7510   -8.5099    4.0139 H   0  0  0  0  0  0  0  0  0  0  0  0
    1.0745   -8.3119    3.6693 H   0  0  0  0  0  0  0  0  0  0  0  0
    3.0518   -5.9569    4.0132 H   0  0  0  0  0  0  0  0  0  0  0  0
    0.7883   -7.1995    1.3914 H   0  0  0  0  0  0  0  0  0  0  0  0
    1.7685   -6.5362    0.0893 H   0  0  0  0  0  0  0  0  0  0  0  0
    1.0150   -5.4666    1.2390 H   0  0  0  0  0  0  0  0  0  0  0  0
    2.7765   -3.9358    3.3281 H   0  0  0  0  0  0  0  0  0  0  0  0
    3.3592   -1.8589    2.1562 H   0  0  0  0  0  0  0  0  0  0  0  0
    4.7775   -2.4329    3.0153 H   0  0  0  0  0  0  0  0  0  0  0  0
    2.6894   -3.9467   -1.4667 H   0  0  0  0  0  0  0  0  0  0  0  0
    3.0580   -2.2561   -1.1535 H   0  0  0  0  0  0  0  0  0  0  0  0
    2.3061   -3.2251    0.0884 H   0  0  0  0  0  0  0  0  0  0  0  0
    5.2441   -4.4346   -2.0898 H   0  0  0  0  0  0  0  0  0  0  0  0
    6.4609   -3.5820   -1.1422 H   0  0  0  0  0  0  0  0  0  0  0  0
    5.2469   -2.6797   -2.0029 H   0  0  0  0  0  0  0  0  0  0  0  0
    3.9468   -5.6964   -0.3050 H   0  0  0  0  0  0  0  0  0  0  0  0
    5.7959   -6.7503    0.4857 H   0  0  0  0  0  0  0  0  0  0  0  0
    6.5811   -5.3303    0.0970 H   0  0  0  0  0  0  0  0  0  0  0  0
    7.0928   -4.7865    2.1922 H   0  0  0  0  0  0  0  0  0  0  0  0
    5.6314   -5.2436    2.9464 H   0  0  0  0  0  0  0  0  0  0  0  0
    8.7900   -8.0377    2.2481 H   0  0  0  0  0  0  0  0  0  0  0  0
    8.6555   -6.5375    1.3771 H   0  0  0  0  0  0  0  0  0  0  0  0
    7.6333   -7.9025    0.9417 H   0  0  0  0  0  0  0  0  0  0  0  0
    8.5831   -7.1248    4.3120 H   0  0  0  0  0  0  0  0  0  0  0  0
    8.2335   -5.4573    4.0196 H   0  0  0  0  0  0  0  0  0  0  0  0
    7.2602   -6.8497    6.1506 H   0  0  0  0  0  0  0  0  0  0  0  0
    6.3604   -5.5201    5.4590 H   0  0  0  0  0  0  0  0  0  0  0  0
    4.8517   -6.7485    4.4930 H   0  0  0  0  0  0  0  0  0  0  0  0
    4.4813   -9.1593    5.3186 H   0  0  0  0  0  0  0  0  0  0  0  0
    6.6385   -8.5872    7.3849 H   0  0  0  0  0  0  0  0  0  0  0  0
    6.8341   -9.7270    6.0746 H   0  0  0  0  0  0  0  0  0  0  0  0
    5.6099   -9.9951    7.2735 H   0  0  0  0  0  0  0  0  0  0  0  0
    3.7757   -8.5602    7.6838 H   0  0  0  0  0  0  0  0  0  0  0  0
    4.7202   -7.1457    7.5471 H   0  0  0  0  0  0  0  0  0  0  0  0
    3.3450   -6.5093    5.7742 H   0  0  0  0  0  0  0  0  0  0  0  0
    3.9099   -5.5966    8.6920 H   0  0  0  0  0  0  0  0  0  0  0  0
    3.2514   -4.0550    8.3335 H   0  0  0  0  0  0  0  0  0  0  0  0
    4.3281   -4.8121    7.1600 H   0  0  0  0  0  0  0  0  0  0  0  0
    1.5215   -6.8807    8.8602 H   0  0  0  0  0  0  0  0  0  0  0  0
    0.2767   -5.8958    8.0956 H   0  0  0  0  0  0  0  0  0  0  0  0
    1.4237   -5.1563    9.1313 H   0  0  0  0  0  0  0  0  0  0  0  0
    6.2649  -10.0826    3.9835 H   0  0  0  0  0  0  0  0  0  0  0  0
    7.7428   -9.1510    4.1667 H   0  0  0  0  0  0  0  0  0  0  0  0
    7.2163   -9.6957    2.5950 H   0  0  0  0  0  0  0  0  0  0  0  0
    5.3117   -9.0115    1.6288 H   0  0  0  0  0  0  0  0  0  0  0  0
    4.3889   -9.2946    3.0130 H   0  0  0  0  0  0  0  0  0  0  0  0
    3.9592   -7.6134    0.6494 H   0  0  0  0  0  0  0  0  0  0  0  0
    2.4714   -9.2206    2.2303 H   0  0  0  0  0  0  0  0  0  0  0  0
  1  2  2  0
  1 41  1  0
  1 42  1  0
  2 33  1  0
  2  3  1  0
  3 10  1  0
  3  4  1  0
  3 43  1  6
  4  5  1  0
  4 44  1  0
  4 45  1  0
  5  6  1  0
  5 46  1  0
  5 47  1  0
  6 32  1  0
  6  7  1  1
  6  8  1  0
  7 48  1  0
  7 49  1  0
  7 50  1  0
  8  9  1  0
  8 51  1  0
  8 52  1  0
  9 10  1  0
  9 11  1  0
  9 53  1  1
 11 39  1  0
 11 12  1  6
 11 13  1  0
 12 54  1  0
 12 55  1  0
 12 56  1  0
 13 21  1  0
 13 14  2  0
 14 15  1  0
 14 57  1  0
 15 16  1  0
 15 58  1  0
 15 59  1  0
 16 17  2  0
 16 18  1  0
 18 19  1  0
 18 20  1  0
 18 21  1  0
 19 60  1  0
 19 61  1  0
 19 62  1  0
 20 63  1  0
 20 64  1  0
 20 65  1  0
 21 22  1  0
 21 66  1  6
 22 23  1  0
 22 67  1  0
 22 68  1  0
 23 24  1  0
 23 69  1  0
 23 70  1  0
 24 36  1  0
 24 25  1  6
 24 26  1  0
 25 71  1  0
 25 72  1  0
 25 73  1  0
 26 27  1  0
 26 74  1  0
 26 75  1  0
 27 28  1  0
 27 76  1  0
 27 77  1  0
 28 29  1  0
 28 36  1  0
 28 78  1  6
 29 30  1  0
 29 31  1  0
 29 79  1  6
 30 80  1  0
 30 81  1  0
 30 82  1  0
 31 32  1  0
 31 83  1  0
 31 84  1  0
 32 33  1  0
 32 85  1  6
 33 34  1  0
 33 35  1  0
 34 86  1  0
 34 87  1  0
 34 88  1  0
 35 89  1  0
 35 90  1  0
 35 91  1  0
 36 37  1  1
 36 38  1  0
 37 92  1  0
 37 93  1  0
 37 94  1  0
 38 39  1  0
 38 95  1  0
 38 96  1  0
 39 40  1  0
 39 97  1  6
 40 98  1  0
M  END
>  <i_m_ct_stereo_status>  (30) 
1

>  <s_m_source_file>  (30) 
/var/tmp/pbs.5076255.sched01/tmpsofmo5yl/0au1p7r3z.sdf

>  <i_m_source_file_index>  (30) 
14

>  <i_lp_mmshare_version>  (30) 
48012

>  <i_f3d_flags>  (30) 
0

>  <s_epik_input>  (30) 
W0NIM11DMShbQ0gzXSlDKD1bQ0gyXSlbQ0BIXShbQ0gyXVtDSDJdMilPW0NAQEhdKFtDSDJdMylbQ0BdKFtDSDNdKShbQ0BASF0oW0NIMl00KVtPSF0pQyg9W0NIXVtDSDJdQyg9TylDNShbQ0gzXSlbQ0gzXSlbQ0BASF01W0NIMl1bQ0gyXVtDQEBdKFtDSDNdKShbQ0gyXVtDSDJdNilbQ0BAXTQoW0NIM10pW0NASF02W0NAQEhdKFtDSDNdKVtDSDJdW0NASF0xW0NAQF0yM1tDSDNd

>  <s_epik_cmdline>  (30) 
J2VwaWtfcHl0aG9uJywgJy1waHQnLCAnMi4wJywgJy1waCcsICc3LjAnLCAnLXRuJywgJzgnLCAnLW1hJywgJzIwMCcsICctaW1hZScsICc8aW5maWxlLm1hZT4nLCAnLW9tYWUnLCAnPG91dGZpbGUubWFlPic=

>  <r_lp_tautomer_probability>  (30) 
1

>  <r_epik_Ionization_Penalty>  (30) 
2.26034e-07

>  <r_epik_Ionization_Penalty_Charging>  (30) 
0

>  <r_epik_Ionization_Penalty_Neutral>  (30) 
2.26034e-07

>  <r_epik_State_Penalty>  (30) 
-0

>  <r_epik_Charging_Adjusted_Penalty>  (30) 
0

>  <i_epik_Tot_Q>  (30) 
0

>  <i_epik_Tot_abs_Q>  (30) 
0

>  <s_lp_Force_Field>  (30) 
OPLS3e

>  <r_lp_Energy>  (30) 
162.017

>  <b_lp_Chiralities_Consistent>  (30) 
1

>  <s_lp_Variant>  (30) 
10:0-1

>  <s_i_glide_gridfile>  (30) 
pfpi4k_grid

>  <i_i_glide_lignum>  (30) 
14

>  <i_i_glide_rotatable_bonds>  (30) 
1

>  <r_i_docking_score>  (30) 
-2.0817

>  <r_i_glide_ligand_efficiency>  (30) 
-0.0520425

>  <r_i_glide_ligand_efficiency_sa>  (30) 
-0.177983

>  <r_i_glide_ligand_efficiency_ln>  (30) 
-0.443966

>  <r_i_glide_gscore>  (30) 
-2.0817

>  <r_i_glide_lipo>  (30) 
-0.39349

>  <r_i_glide_hbond>  (30) 
0

>  <r_i_glide_metal>  (30) 
-0

>  <r_i_glide_rewards>  (30) 
-0.032113

>  <r_i_glide_evdw>  (30) 
-31.6398

>  <r_i_glide_ecoul>  (30) 
-0.494045

>  <r_i_glide_erotb>  (30) 
0

>  <r_i_glide_esite>  (30) 
0

>  <r_i_glide_emodel>  (30) 
-36.3881

>  <r_i_glide_energy>  (30) 
-32.1339

>  <r_i_glide_einternal>  (30) 
0.100466

>  <r_i_glide_intrahb_reward>  (30) 
-0

>  <i_i_glide_confnum>  (30) 
1

>  <i_i_glide_posenum>  (30) 
1

>  <r_i_glide_eff_state_penalty>  (30) 
0

>  <ligand_id>  (30) 
10

>  <original_smiles>  (30) 
C=C1C2CCC3(C)CC(O2)C2(C)C4=CCC(=O)C(C)(C)C4CCC4(C)CCC(C(C)CC3C1(C)C)C4(C)CC2O

>  <smiles>  (30) 
[H]OC1([H])C([H])([H])C2(C([H])([H])[H])C3([H])C([H])([H])C([H])([H])C2(C([H])([H])[H])C([H])([H])C([H])([H])C2([H])C(=C([H])C([H])([H])C(=O)C2(C([H])([H])[H])C([H])([H])[H])C1(C([H])([H])[H])C1([H])OC2([H])C(=C([H])[H])C(C([H])([H])[H])(C([H])([H])[H])C([H])(C([H])([H])C3([H])C([H])([H])[H])C(C([H])([H])[H])(C([H])([H])C2([H])[H])C1([H])[H]

$$$$
10:0:2
     RDKit          3D

 98103  0  0  1  0  0  0  0  0999 V2000
    2.0371   -3.4186    6.0059 C   0  0  0  0  0  0  0  0  0  0  0  0
    1.7182   -4.7299    6.1126 C   0  0  0  0  0  0  0  0  0  0  0  0
    0.6869   -5.2574    5.0876 C   0  0  2  0  0  0  0  0  0  0  0  0
   -0.3377   -6.2710    5.5741 C   0  0  0  0  0  0  0  0  0  0  0  0
    0.2289   -7.5989    6.0732 C   0  0  0  0  0  0  0  0  0  0  0  0
    1.7195   -7.9165    5.7727 C   0  0  1  0  0  0  0  0  0  0  0  0
    1.7957   -9.4012    6.2402 C   0  0  0  0  0  0  0  0  0  0  0  0
    1.9330   -7.8599    4.2320 C   0  0  0  0  0  0  0  0  0  0  0  0
    2.2478   -6.4767    3.5682 C   0  0  2  0  0  0  0  0  0  0  0  0
    1.1548   -5.5706    3.7608 O   0  0  0  0  0  0  0  0  0  0  0  0
    2.7707   -6.4904    2.0771 C   0  0  1  0  0  0  0  0  0  0  0  0
    1.5108   -6.4680    1.1725 C   0  0  0  0  0  0  0  0  0  0  0  0
    3.5121   -5.1538    1.7190 C   0  0  0  0  0  0  0  0  0  0  0  0
    3.4026   -4.0071    2.4430 C   0  0  0  0  0  0  0  0  0  0  0  0
    4.1014   -2.6802    2.1608 C   0  0  0  0  0  0  0  0  0  0  0  0
    4.8742   -2.6737    0.8444 C   0  0  0  0  0  0  0  0  0  0  0  0
    5.7804   -1.8620    0.6473 O   0  0  0  0  0  0  0  0  0  0  0  0
    4.4438   -3.6999   -0.2148 C   0  0  0  0  0  0  0  0  0  0  0  0
    3.0301   -3.3077   -0.7194 C   0  0  0  0  0  0  0  0  0  0  0  0
    5.3829   -3.6495   -1.4482 C   0  0  0  0  0  0  0  0  0  0  0  0
    4.4060   -5.1205    0.4582 C   0  0  1  0  0  0  0  0  0  0  0  0
    5.8085   -5.7422    0.7620 C   0  0  0  0  0  0  0  0  0  0  0  0
    6.3591   -5.6129    2.2064 C   0  0  0  0  0  0  0  0  0  0  0  0
    7.0326   -6.8809    2.7934 C   0  0  1  0  0  0  0  0  0  0  0  0
    8.0745   -7.3893    1.7716 C   0  0  0  0  0  0  0  0  0  0  0  0
    7.7842   -6.4370    4.0753 C   0  0  0  0  0  0  0  0  0  0  0  0
    6.7876   -6.5006    5.2368 C   0  0  0  0  0  0  0  0  0  0  0  0
    5.6484   -7.4315    4.7845 C   0  0  2  0  0  0  0  0  0  0  0  0
    5.0675   -8.4004    5.9050 C   0  0  1  0  0  0  0  0  0  0  0  0
    6.1351   -9.1917    6.7065 C   0  0  0  0  0  0  0  0  0  0  0  0
    4.1121   -7.7678    6.9939 C   0  0  0  0  0  0  0  0  0  0  0  0
    2.8136   -7.0215    6.5172 C   0  0  2  0  0  0  0  0  0  0  0  0
    2.3412   -5.6733    7.2017 C   0  0  0  0  0  0  0  0  0  0  0  0
    3.5634   -4.9683    7.8667 C   0  0  0  0  0  0  0  0  0  0  0  0
    1.3757   -5.8903    8.3960 C   0  0  0  0  0  0  0  0  0  0  0  0
    6.0490   -7.9853    3.3648 C   0  0  2  0  0  0  0  0  0  0  0  0
    6.8794   -9.2936    3.5622 C   0  0  0  0  0  0  0  0  0  0  0  0
    4.8365   -8.4957    2.4725 C   0  0  0  0  0  0  0  0  0  0  0  0
    3.6379   -7.7875    1.6932 C   0  0  1  0  0  0  0  0  0  0  0  0
    2.7474   -8.8773    1.4962 O   0  0  0  0  0  0  0  0  0  0  0  0
    2.7358   -2.9080    6.6450 H   0  0  0  0  0  0  0  0  0  0  0  0
    1.5804   -2.8071    5.2430 H   0  0  0  0  0  0  0  0  0  0  0  0
    0.0597   -4.3922    4.8774 H   0  0  0  0  0  0  0  0  0  0  0  0
   -0.9699   -5.8274    6.3447 H   0  0  0  0  0  0  0  0  0  0  0  0
   -1.0216   -6.4762    4.7477 H   0  0  0  0  0  0  0  0  0  0  0  0
    0.0244   -7.7277    7.1344 H   0  0  0  0  0  0  0  0  0  0  0  0
   -0.3990   -8.3661    5.6137 H   0  0  0  0  0  0  0  0  0  0  0  0
    2.7257   -9.9077    6.0111 H   0  0  0  0  0  0  0  0  0  0  0  0
    1.0275  -10.0178    5.7710 H   0  0  0  0  0  0  0  0  0  0  0  0
    1.6475   -9.4887    7.3174 H   0  0  0  0  0  0  0  0  0  0  0  0
    2.7656   -8.5184    4.0558 H   0  0  0  0  0  0  0  0  0  0  0  0
    1.0920   -8.3279    3.7197 H   0  0  0  0  0  0  0  0  0  0  0  0
    3.0680   -5.9678    4.0262 H   0  0  0  0  0  0  0  0  0  0  0  0
    0.7882   -7.2411    1.4375 H   0  0  0  0  0  0  0  0  0  0  0  0
    1.7519   -6.5891    0.1180 H   0  0  0  0  0  0  0  0  0  0  0  0
    1.0103   -5.5097    1.2631 H   0  0  0  0  0  0  0  0  0  0  0  0
    2.7864   -3.9521    3.3220 H   0  0  0  0  0  0  0  0  0  0  0  0
    3.3575   -1.8857    2.1239 H   0  0  0  0  0  0  0  0  0  0  0  0
    4.7828   -2.4481    2.9788 H   0  0  0  0  0  0  0  0  0  0  0  0
    2.6610   -4.0111   -1.4678 H   0  0  0  0  0  0  0  0  0  0  0  0
    3.0312   -2.3166   -1.1782 H   0  0  0  0  0  0  0  0  0  0  0  0
    2.2904   -3.2724    0.0809 H   0  0  0  0  0  0  0  0  0  0  0  0
    5.2154   -4.5030   -2.1067 H   0  0  0  0  0  0  0  0  0  0  0  0
    6.4388   -3.6404   -1.1776 H   0  0  0  0  0  0  0  0  0  0  0  0
    5.2189   -2.7481   -2.0397 H   0  0  0  0  0  0  0  0  0  0  0  0
    3.9318   -5.7460   -0.3010 H   0  0  0  0  0  0  0  0  0  0  0  0
    5.7904   -6.7893    0.4857 H   0  0  0  0  0  0  0  0  0  0  0  0
    6.5708   -5.3686    0.0844 H   0  0  0  0  0  0  0  0  0  0  0  0
    7.0941   -4.8078    2.1647 H   0  0  0  0  0  0  0  0  0  0  0  0
    5.6385   -5.2583    2.9350 H   0  0  0  0  0  0  0  0  0  0  0  0
    8.7973   -8.0559    2.2392 H   0  0  0  0  0  0  0  0  0  0  0  0
    8.6531   -6.5652    1.3536 H   0  0  0  0  0  0  0  0  0  0  0  0
    7.6298   -7.9359    0.9415 H   0  0  0  0  0  0  0  0  0  0  0  0
    8.6053   -7.1212    4.2968 H   0  0  0  0  0  0  0  0  0  0  0  0
    8.2506   -5.4572    3.9886 H   0  0  0  0  0  0  0  0  0  0  0  0
    7.2939   -6.8278    6.1422 H   0  0  0  0  0  0  0  0  0  0  0  0
    6.3885   -5.5071    5.4430 H   0  0  0  0  0  0  0  0  0  0  0  0
    4.8727   -6.7478    4.5026 H   0  0  0  0  0  0  0  0  0  0  0  0
    4.5112   -9.1495    5.3557 H   0  0  0  0  0  0  0  0  0  0  0  0
    6.6850   -8.5542    7.3992 H   0  0  0  0  0  0  0  0  0  0  0  0
    6.8716   -9.7073    6.1000 H   0  0  0  0  0  0  0  0  0  0  0  0
    5.6575   -9.9643    7.3108 H   0  0  0  0  0  0  0  0  0  0  0  0
    3.8237   -8.5267    7.7206 H   0  0  0  0  0  0  0  0  0  0  0  0
    4.7640   -7.1128    7.5604 H   0  0  0  0  0  0  0  0  0  0  0  0
    3.3713   -6.4995    5.7920 H   0  0  0  0  0  0  0  0  0  0  0  0
    3.9638   -5.5516    8.6961 H   0  0  0  0  0  0  0  0  0  0  0  0
    3.3014   -4.0148    8.3269 H   0  0  0  0  0  0  0  0  0  0  0  0
    4.3691   -4.7835    7.1534 H   0  0  0  0  0  0  0  0  0  0  0  0
    1.5771   -6.8373    8.8959 H   0  0  0  0  0  0  0  0  0  0  0  0
    0.3252   -5.8615    8.1302 H   0  0  0  0  0  0  0  0  0  0  0  0
    1.4790   -5.1103    9.1508 H   0  0  0  0  0  0  0  0  0  0  0  0
    6.2870  -10.0861    4.0175 H   0  0  0  0  0  0  0  0  0  0  0  0
    7.7651   -9.1508    4.1796 H   0  0  0  0  0  0  0  0  0  0  0  0
    7.2283   -9.7132    2.6183 H   0  0  0  0  0  0  0  0  0  0  0  0
    5.3206   -9.0426    1.6616 H   0  0  0  0  0  0  0  0  0  0  0  0
    4.4026   -9.3052    3.0571 H   0  0  0  0  0  0  0  0  0  0  0  0
    3.9549   -7.6660    0.6639 H   0  0  0  0  0  0  0  0  0  0  0  0
    3.2391   -9.6375    1.2117 H   0  0  0  0  0  0  0  0  0  0  0  0
  1  2  2  0
  1 41  1  0
  1 42  1  0
  2 33  1  0
  2  3  1  0
  3 10  1  0
  3  4  1  0
  3 43  1  6
  4  5  1  0
  4 44  1  0
  4 45  1  0
  5  6  1  0
  5 46  1  0
  5 47  1  0
  6 32  1  0
  6  7  1  1
  6  8  1  0
  7 48  1  0
  7 49  1  0
  7 50  1  0
  8  9  1  0
  8 51  1  0
  8 52  1  0
  9 10  1  0
  9 11  1  0
  9 53  1  1
 11 39  1  0
 11 12  1  6
 11 13  1  0
 12 54  1  0
 12 55  1  0
 12 56  1  0
 13 21  1  0
 13 14  2  0
 14 15  1  0
 14 57  1  0
 15 16  1  0
 15 58  1  0
 15 59  1  0
 16 17  2  0
 16 18  1  0
 18 19  1  0
 18 20  1  0
 18 21  1  0
 19 60  1  0
 19 61  1  0
 19 62  1  0
 20 63  1  0
 20 64  1  0
 20 65  1  0
 21 22  1  0
 21 66  1  6
 22 23  1  0
 22 67  1  0
 22 68  1  0
 23 24  1  0
 23 69  1  0
 23 70  1  0
 24 36  1  0
 24 25  1  6
 24 26  1  0
 25 71  1  0
 25 72  1  0
 25 73  1  0
 26 27  1  0
 26 74  1  0
 26 75  1  0
 27 28  1  0
 27 76  1  0
 27 77  1  0
 28 29  1  0
 28 36  1  0
 28 78  1  6
 29 30  1  0
 29 31  1  0
 29 79  1  6
 30 80  1  0
 30 81  1  0
 30 82  1  0
 31 32  1  0
 31 83  1  0
 31 84  1  0
 32 33  1  0
 32 85  1  6
 33 34  1  0
 33 35  1  0
 34 86  1  0
 34 87  1  0
 34 88  1  0
 35 89  1  0
 35 90  1  0
 35 91  1  0
 36 37  1  1
 36 38  1  0
 37 92  1  0
 37 93  1  0
 37 94  1  0
 38 39  1  0
 38 95  1  0
 38 96  1  0
 39 40  1  0
 39 97  1  6
 40 98  1  0
M  END
>  <i_m_ct_stereo_status>  (31) 
1

>  <s_m_source_file>  (31) 
/var/tmp/pbs.5076255.sched01/tmpsofmo5yl/0au1p7r3z.sdf

>  <i_m_source_file_index>  (31) 
14

>  <i_lp_mmshare_version>  (31) 
48012

>  <i_f3d_flags>  (31) 
0

>  <s_epik_input>  (31) 
W0NIM11DMShbQ0gzXSlDKD1bQ0gyXSlbQ0BIXShbQ0gyXVtDSDJdMilPW0NAQEhdKFtDSDJdMylbQ0BdKFtDSDNdKShbQ0BASF0oW0NIMl00KVtPSF0pQyg9W0NIXVtDSDJdQyg9TylDNShbQ0gzXSlbQ0gzXSlbQ0BASF01W0NIMl1bQ0gyXVtDQEBdKFtDSDNdKShbQ0gyXVtDSDJdNilbQ0BAXTQoW0NIM10pW0NASF02W0NAQEhdKFtDSDNdKVtDSDJdW0NASF0xW0NAQF0yM1tDSDNd

>  <s_epik_cmdline>  (31) 
J2VwaWtfcHl0aG9uJywgJy1waHQnLCAnMi4wJywgJy1waCcsICc3LjAnLCAnLXRuJywgJzgnLCAnLW1hJywgJzIwMCcsICctaW1hZScsICc8aW5maWxlLm1hZT4nLCAnLW9tYWUnLCAnPG91dGZpbGUubWFlPic=

>  <r_lp_tautomer_probability>  (31) 
1

>  <r_epik_Ionization_Penalty>  (31) 
2.26034e-07

>  <r_epik_Ionization_Penalty_Charging>  (31) 
0

>  <r_epik_Ionization_Penalty_Neutral>  (31) 
2.26034e-07

>  <r_epik_State_Penalty>  (31) 
-0

>  <r_epik_Charging_Adjusted_Penalty>  (31) 
0

>  <i_epik_Tot_Q>  (31) 
0

>  <i_epik_Tot_abs_Q>  (31) 
0

>  <s_lp_Force_Field>  (31) 
OPLS3e

>  <r_lp_Energy>  (31) 
162.017

>  <b_lp_Chiralities_Consistent>  (31) 
1

>  <s_lp_Variant>  (31) 
10:0-1

>  <s_i_glide_gridfile>  (31) 
pfpi4k_grid

>  <i_i_glide_lignum>  (31) 
14

>  <i_i_glide_rotatable_bonds>  (31) 
1

>  <r_i_docking_score>  (31) 
-2.05668

>  <r_i_glide_ligand_efficiency>  (31) 
-0.0514169

>  <r_i_glide_ligand_efficiency_sa>  (31) 
-0.175843

>  <r_i_glide_ligand_efficiency_ln>  (31) 
-0.438629

>  <r_i_glide_gscore>  (31) 
-2.05668

>  <r_i_glide_lipo>  (31) 
-0.387967

>  <r_i_glide_hbond>  (31) 
0

>  <r_i_glide_metal>  (31) 
-0

>  <r_i_glide_rewards>  (31) 
-0.0314666

>  <r_i_glide_evdw>  (31) 
-31.461

>  <r_i_glide_ecoul>  (31) 
-0.427955

>  <r_i_glide_erotb>  (31) 
0

>  <r_i_glide_esite>  (31) 
0

>  <r_i_glide_emodel>  (31) 
-35.941

>  <r_i_glide_energy>  (31) 
-31.889

>  <r_i_glide_einternal>  (31) 
0.439805

>  <r_i_glide_intrahb_reward>  (31) 
-0

>  <i_i_glide_confnum>  (31) 
1

>  <i_i_glide_posenum>  (31) 
27

>  <r_i_glide_eff_state_penalty>  (31) 
0

>  <ligand_id>  (31) 
10

>  <original_smiles>  (31) 
C=C1C2CCC3(C)CC(O2)C2(C)C4=CCC(=O)C(C)(C)C4CCC4(C)CCC(C(C)CC3C1(C)C)C4(C)CC2O

>  <smiles>  (31) 
[H]OC1([H])C([H])([H])C2(C([H])([H])[H])C3([H])C([H])([H])C([H])([H])C2(C([H])([H])[H])C([H])([H])C([H])([H])C2([H])C(=C([H])C([H])([H])C(=O)C2(C([H])([H])[H])C([H])([H])[H])C1(C([H])([H])[H])C1([H])OC2([H])C(=C([H])[H])C(C([H])([H])[H])(C([H])([H])[H])C([H])(C([H])([H])C3([H])C([H])([H])[H])C(C([H])([H])[H])(C([H])([H])C2([H])[H])C1([H])[H]

$$$$
11:0:0
     RDKit          3D

 48 52  0  0  1  0  0  0  0  0999 V2000
    3.4169   -0.8671   -4.8470 C   0  0  0  0  0  0  0  0  0  0  0  0
    3.4122   -1.5564   -3.4924 C   0  0  2  0  0  0  0  0  0  0  0  0
    3.2839   -0.4027   -2.4689 C   0  0  0  0  0  0  0  0  0  0  0  0
    3.4225   -0.9871   -1.0486 C   0  0  2  0  0  0  0  0  0  0  0  0
    3.2577   -0.2991    0.4543 C   0  0  0  0  0  0  0  0  0  0  0  0
    3.9407   -0.9435    1.8025 C   0  0  1  0  0  0  0  0  0  0  0  0
    2.9360   -1.6392    2.7611 C   0  0  0  0  0  0  0  0  0  0  0  0
    3.4466   -1.7464    4.0718 O   0  0  0  0  0  0  0  0  0  0  0  0
    5.4277   -1.6763    1.6462 C   0  0  2  0  0  0  0  0  0  0  0  0
    5.9969   -1.4454    2.8820 O   0  0  0  0  0  0  0  0  0  0  0  0
    5.9716   -0.9178    0.6343 C   0  0  0  0  0  0  0  0  0  0  0  0
    5.0821   -2.1490    0.0233 C   0  0  1  0  0  0  0  0  0  0  0  0
    3.9027   -3.2444    0.1721 C   0  0  0  0  0  0  0  0  0  0  0  0
    3.9449   -3.7209   -1.1676 O   0  0  0  0  0  0  0  0  0  0  0  0
    4.9429   -2.9183   -1.8115 C   0  0  1  0  0  0  0  0  0  0  0  0
    4.6327   -2.5570   -3.2894 C   0  0  1  0  0  0  0  0  0  0  0  0
    4.5323   -3.7417   -4.0564 O   0  0  0  0  0  0  0  0  0  0  0  0
    4.7927   -1.6207   -1.2139 C   0  0  1  0  0  0  0  0  0  0  0  0
    6.3528   -3.1919   -1.0518 C   0  0  1  0  0  0  0  0  0  0  0  0
    7.4583   -2.5086   -1.6419 O   0  0  0  0  0  0  0  0  0  0  0  0
    6.2023   -2.8308    0.5424 C   0  0  1  0  0  0  0  0  0  0  0  0
    6.3783   -4.1847    1.2730 C   0  0  0  0  0  0  0  0  0  0  0  0
    4.2848   -0.2170   -5.0403 H   0  0  0  0  0  0  0  0  0  0  0  0
    2.4970   -0.3062   -5.0465 H   0  0  0  0  0  0  0  0  0  0  0  0
    3.4218   -1.7228   -5.5065 H   0  0  0  0  0  0  0  0  0  0  0  0
    2.5051   -2.1585   -3.4406 H   0  0  0  0  0  0  0  0  0  0  0  0
    4.0098    0.3810   -2.7161 H   0  0  0  0  0  0  0  0  0  0  0  0
    2.2938   -0.0039   -2.6769 H   0  0  0  0  0  0  0  0  0  0  0  0
    2.6160   -1.7031   -1.1567 H   0  0  0  0  0  0  0  0  0  0  0  0
    3.6391    0.7203    0.4797 H   0  0  0  0  0  0  0  0  0  0  0  0
    2.1997   -0.1758    0.6530 H   0  0  0  0  0  0  0  0  0  0  0  0
    4.1431   -0.0266    2.3694 H   0  0  0  0  0  0  0  0  0  0  0  0
    2.0342   -1.0340    2.8197 H   0  0  0  0  0  0  0  0  0  0  0  0
    2.6412   -2.6298    2.4343 H   0  0  0  0  0  0  0  0  0  0  0  0
    4.2955   -2.1662    4.0178 H   0  0  0  0  0  0  0  0  0  0  0  0
    6.4974   -0.6488    2.7655 H   0  0  0  0  0  0  0  0  0  0  0  0
    5.6527    0.1225    0.5369 H   0  0  0  0  0  0  0  0  0  0  0  0
    7.0699   -0.8861    0.4986 H   0  0  0  0  0  0  0  0  0  0  0  0
    4.0511   -4.0633    0.8631 H   0  0  0  0  0  0  0  0  0  0  0  0
    2.8922   -2.9108    0.3972 H   0  0  0  0  0  0  0  0  0  0  0  0
    5.4597   -2.0114   -3.6842 H   0  0  0  0  0  0  0  0  0  0  0  0
    3.9187   -4.3170   -3.6186 H   0  0  0  0  0  0  0  0  0  0  0  0
    5.5236   -0.8976   -1.5888 H   0  0  0  0  0  0  0  0  0  0  0  0
    6.5769   -4.2277   -1.1595 H   0  0  0  0  0  0  0  0  0  0  0  0
    7.6953   -2.9607   -2.4387 H   0  0  0  0  0  0  0  0  0  0  0  0
    5.9682   -5.0376    0.7302 H   0  0  0  0  0  0  0  0  0  0  0  0
    5.9083   -4.1740    2.2542 H   0  0  0  0  0  0  0  0  0  0  0  0
    7.4338   -4.3961    1.4286 H   0  0  0  0  0  0  0  0  0  0  0  0
  1  2  1  0
  1 23  1  0
  1 24  1  0
  1 25  1  0
  2 16  1  0
  2  3  1  0
  2 26  1  6
  3  4  1  0
  3 27  1  0
  3 28  1  0
  4 18  1  0
  4  5  1  0
  4 29  1  6
  5  6  1  0
  5 30  1  0
  5 31  1  0
  6  7  1  0
  6  9  1  0
  6 32  1  1
  7  8  1  0
  7 33  1  0
  7 34  1  0
  8 35  1  0
  9 21  1  0
  9 10  1  1
  9 11  1  0
 10 36  1  0
 11 12  1  0
 11 37  1  0
 11 38  1  0
 12 18  1  0
 12 21  1  0
 12 13  1  1
 13 14  1  0
 13 39  1  0
 13 40  1  0
 15 14  1  1
 15 16  1  0
 15 18  1  0
 15 19  1  0
 16 17  1  0
 16 41  1  6
 17 42  1  0
 18 43  1  6
 19 20  1  0
 19 21  1  0
 19 44  1  1
 20 45  1  0
 21 22  1  1
 22 46  1  0
 22 47  1  0
 22 48  1  0
M  END
>  <i_m_ct_stereo_status>  (32) 
1

>  <s_m_source_file>  (32) 
/var/tmp/pbs.5076255.sched01/tmpsofmo5yl/0au1p7r3z.sdf

>  <i_m_source_file_index>  (32) 
15

>  <i_lp_mmshare_version>  (32) 
48012

>  <i_f3d_flags>  (32) 
0

>  <s_epik_input>  (32) 
W0NAXTEyM1tDQEhdNFtDQEBdNShPW0NIMl0yKVtDQEBIXShbT0hdKVtDQEhdKFtDSDNdKVtDSDJdW0NAQEhdNFtDSDJdW0NAQEhdKFtDSDJdW09IXSlbQ0BdKFtPSF0pKFtDSDJdMSlbQ0BdMyhbQ0gzXSlbQ0BASF01W09IXQ==

>  <s_epik_cmdline>  (32) 
J2VwaWtfcHl0aG9uJywgJy1waHQnLCAnMi4wJywgJy1waCcsICc3LjAnLCAnLXRuJywgJzgnLCAnLW1hJywgJzIwMCcsICctaW1hZScsICc8aW5maWxlLm1hZT4nLCAnLW9tYWUnLCAnPG91dGZpbGUubWFlPic=

>  <r_lp_tautomer_probability>  (32) 
1

>  <r_epik_Ionization_Penalty>  (32) 
1.87909e-06

>  <r_epik_Ionization_Penalty_Charging>  (32) 
0

>  <r_epik_Ionization_Penalty_Neutral>  (32) 
1.87909e-06

>  <r_epik_State_Penalty>  (32) 
-0

>  <r_epik_Charging_Adjusted_Penalty>  (32) 
0

>  <i_epik_Tot_Q>  (32) 
0

>  <i_epik_Tot_abs_Q>  (32) 
0

>  <s_lp_Force_Field>  (32) 
OPLS3e

>  <r_lp_Energy>  (32) 
342.932

>  <b_lp_Chiralities_Consistent>  (32) 
1

>  <s_lp_Variant>  (32) 
11:0-1

>  <s_i_glide_gridfile>  (32) 
pfpi4k_grid

>  <i_i_glide_lignum>  (32) 
15

>  <i_i_glide_rotatable_bonds>  (32) 
5

>  <r_i_docking_score>  (32) 
-4.44446

>  <r_i_glide_ligand_efficiency>  (32) 
-0.202021

>  <r_i_glide_ligand_efficiency_sa>  (32) 
-0.56607

>  <r_i_glide_ligand_efficiency_ln>  (32) 
-1.08639

>  <r_i_glide_gscore>  (32) 
-4.44446

>  <r_i_glide_lipo>  (32) 
-0.866284

>  <r_i_glide_hbond>  (32) 
-0.36461

>  <r_i_glide_metal>  (32) 
-0

>  <r_i_glide_rewards>  (32) 
-1.79283

>  <r_i_glide_evdw>  (32) 
-9.4434

>  <r_i_glide_ecoul>  (32) 
-7.60604

>  <r_i_glide_erotb>  (32) 
0.192342

>  <r_i_glide_esite>  (32) 
0

>  <r_i_glide_emodel>  (32) 
-24.8088

>  <r_i_glide_energy>  (32) 
-17.0494

>  <r_i_glide_einternal>  (32) 
0.801211

>  <r_i_glide_intrahb_reward>  (32) 
-0.5

>  <i_i_glide_confnum>  (32) 
5

>  <i_i_glide_posenum>  (32) 
38

>  <r_i_glide_eff_state_penalty>  (32) 
0

>  <ligand_id>  (32) 
11

>  <original_smiles>  (32) 
CC1CC2CC(CO)C3(O)CC45COC(C1O)(C24)C(O)C35C

>  <smiles>  (32) 
[H]OC([H])([H])C1([H])C([H])([H])C2([H])C([H])([H])C([H])(C([H])([H])[H])C([H])(O[H])C34OC([H])([H])C5(C([H])([H])C1(O[H])C5(C([H])([H])[H])C3([H])O[H])C24[H]

$$$$
11:0:1
     RDKit          3D

 48 52  0  0  1  0  0  0  0  0999 V2000
    3.4147   -1.3760   -4.6227 C   0  0  0  0  0  0  0  0  0  0  0  0
    3.4569   -1.8970   -3.1965 C   0  0  2  0  0  0  0  0  0  0  0  0
    3.2253   -0.6550   -2.2474 C   0  0  0  0  0  0  0  0  0  0  0  0
    3.3617   -1.1599   -0.8032 C   0  0  2  0  0  0  0  0  0  0  0  0
    3.0447   -0.3995    0.6237 C   0  0  0  0  0  0  0  0  0  0  0  0
    3.7109   -0.8904    2.0558 C   0  0  1  0  0  0  0  0  0  0  0  0
    2.7327   -1.5933    3.0376 C   0  0  0  0  0  0  0  0  0  0  0  0
    1.6006   -0.7844    3.2900 O   0  0  0  0  0  0  0  0  0  0  0  0
    5.2561   -1.5553    2.0237 C   0  0  2  0  0  0  0  0  0  0  0  0
    5.7947   -1.2309    3.2594 O   0  0  0  0  0  0  0  0  0  0  0  0
    5.7743   -0.8333    0.9765 C   0  0  0  0  0  0  0  0  0  0  0  0
    5.0077   -2.1513    0.4201 C   0  0  1  0  0  0  0  0  0  0  0  0
    3.8920   -3.3154    0.5923 C   0  0  0  0  0  0  0  0  0  0  0  0
    4.0290   -3.8640   -0.7243 O   0  0  0  0  0  0  0  0  0  0  0  0
    5.0088   -3.0529   -1.3836 C   0  0  1  0  0  0  0  0  0  0  0  0
    4.7544   -2.7771   -2.9057 C   0  0  1  0  0  0  0  0  0  0  0  0
    4.6875   -3.9928   -3.6142 O   0  0  0  0  0  0  0  0  0  0  0  0
    4.7529   -1.7344   -0.8599 C   0  0  1  0  0  0  0  0  0  0  0  0
    6.3850   -3.2053   -0.5453 C   0  0  1  0  0  0  0  0  0  0  0  0
    7.4645   -2.5013   -1.1450 O   0  0  0  0  0  0  0  0  0  0  0  0
    6.1332   -2.7382    1.0231 C   0  0  1  0  0  0  0  0  0  0  0  0
    6.3661   -4.0316    1.8389 C   0  0  0  0  0  0  0  0  0  0  0  0
    4.2607   -0.7449   -4.9016 H   0  0  0  0  0  0  0  0  0  0  0  0
    2.4984   -0.8313   -4.8405 H   0  0  0  0  0  0  0  0  0  0  0  0
    3.4197   -2.2722   -5.2091 H   0  0  0  0  0  0  0  0  0  0  0  0
    2.5893   -2.5588   -3.0970 H   0  0  0  0  0  0  0  0  0  0  0  0
    3.9162    0.1383   -2.4978 H   0  0  0  0  0  0  0  0  0  0  0  0
    2.2338   -0.2595   -2.4089 H   0  0  0  0  0  0  0  0  0  0  0  0
    2.6156   -1.9415   -0.8770 H   0  0  0  0  0  0  0  0  0  0  0  0
    3.3336    0.6383    0.4916 H   0  0  0  0  0  0  0  0  0  0  0  0
    1.9772   -0.3289    0.8372 H   0  0  0  0  0  0  0  0  0  0  0  0
    3.8545    0.0698    2.5620 H   0  0  0  0  0  0  0  0  0  0  0  0
    2.3646   -2.5622    2.7067 H   0  0  0  0  0  0  0  0  0  0  0  0
    3.2383   -1.7788    3.9863 H   0  0  0  0  0  0  0  0  0  0  0  0
    1.8980    0.0888    3.5256 H   0  0  0  0  0  0  0  0  0  0  0  0
    6.3511   -0.4710    3.1055 H   0  0  0  0  0  0  0  0  0  0  0  0
    5.3785    0.1651    0.7878 H   0  0  0  0  0  0  0  0  0  0  0  0
    6.8761   -0.7438    0.8689 H   0  0  0  0  0  0  0  0  0  0  0  0
    4.0455   -4.0704    1.3489 H   0  0  0  0  0  0  0  0  0  0  0  0
    2.8566   -3.0470    0.7518 H   0  0  0  0  0  0  0  0  0  0  0  0
    5.6227   -2.2562   -3.2972 H   0  0  0  0  0  0  0  0  0  0  0  0
    4.0833   -4.5704   -3.1502 H   0  0  0  0  0  0  0  0  0  0  0  0
    5.4550   -0.9912   -1.2588 H   0  0  0  0  0  0  0  0  0  0  0  0
    6.6731   -4.2545   -0.6040 H   0  0  0  0  0  0  0  0  0  0  0  0
    7.8220   -3.0433   -1.8442 H   0  0  0  0  0  0  0  0  0  0  0  0
    6.0172   -4.9410    1.3452 H   0  0  0  0  0  0  0  0  0  0  0  0
    5.8724   -3.9857    2.8080 H   0  0  0  0  0  0  0  0  0  0  0  0
    7.4232   -4.1957    2.0358 H   0  0  0  0  0  0  0  0  0  0  0  0
  1  2  1  0
  1 23  1  0
  1 24  1  0
  1 25  1  0
  2 16  1  0
  2  3  1  0
  2 26  1  6
  3  4  1  0
  3 27  1  0
  3 28  1  0
  4 18  1  0
  4  5  1  0
  4 29  1  6
  5  6  1  0
  5 30  1  0
  5 31  1  0
  6  7  1  0
  6  9  1  0
  6 32  1  1
  7  8  1  0
  7 33  1  0
  7 34  1  0
  8 35  1  0
  9 21  1  0
  9 10  1  1
  9 11  1  0
 10 36  1  0
 11 12  1  0
 11 37  1  0
 11 38  1  0
 12 18  1  0
 12 21  1  0
 12 13  1  1
 13 14  1  0
 13 39  1  0
 13 40  1  0
 15 14  1  1
 15 16  1  0
 15 18  1  0
 15 19  1  0
 16 17  1  0
 16 41  1  6
 17 42  1  0
 18 43  1  6
 19 20  1  0
 19 21  1  0
 19 44  1  1
 20 45  1  0
 21 22  1  1
 22 46  1  0
 22 47  1  0
 22 48  1  0
M  END
>  <i_m_ct_stereo_status>  (33) 
1

>  <s_m_source_file>  (33) 
/var/tmp/pbs.5076255.sched01/tmpsofmo5yl/0au1p7r3z.sdf

>  <i_m_source_file_index>  (33) 
15

>  <i_lp_mmshare_version>  (33) 
48012

>  <i_f3d_flags>  (33) 
0

>  <s_epik_input>  (33) 
W0NAXTEyM1tDQEhdNFtDQEBdNShPW0NIMl0yKVtDQEBIXShbT0hdKVtDQEhdKFtDSDNdKVtDSDJdW0NAQEhdNFtDSDJdW0NAQEhdKFtDSDJdW09IXSlbQ0BdKFtPSF0pKFtDSDJdMSlbQ0BdMyhbQ0gzXSlbQ0BASF01W09IXQ==

>  <s_epik_cmdline>  (33) 
J2VwaWtfcHl0aG9uJywgJy1waHQnLCAnMi4wJywgJy1waCcsICc3LjAnLCAnLXRuJywgJzgnLCAnLW1hJywgJzIwMCcsICctaW1hZScsICc8aW5maWxlLm1hZT4nLCAnLW9tYWUnLCAnPG91dGZpbGUubWFlPic=

>  <r_lp_tautomer_probability>  (33) 
1

>  <r_epik_Ionization_Penalty>  (33) 
1.87909e-06

>  <r_epik_Ionization_Penalty_Charging>  (33) 
0

>  <r_epik_Ionization_Penalty_Neutral>  (33) 
1.87909e-06

>  <r_epik_State_Penalty>  (33) 
-0

>  <r_epik_Charging_Adjusted_Penalty>  (33) 
0

>  <i_epik_Tot_Q>  (33) 
0

>  <i_epik_Tot_abs_Q>  (33) 
0

>  <s_lp_Force_Field>  (33) 
OPLS3e

>  <r_lp_Energy>  (33) 
342.932

>  <b_lp_Chiralities_Consistent>  (33) 
1

>  <s_lp_Variant>  (33) 
11:0-1

>  <s_i_glide_gridfile>  (33) 
pfpi4k_grid

>  <i_i_glide_lignum>  (33) 
15

>  <i_i_glide_rotatable_bonds>  (33) 
5

>  <r_i_docking_score>  (33) 
-3.56261

>  <r_i_glide_ligand_efficiency>  (33) 
-0.161937

>  <r_i_glide_ligand_efficiency_sa>  (33) 
-0.453754

>  <r_i_glide_ligand_efficiency_ln>  (33) 
-0.870832

>  <r_i_glide_gscore>  (33) 
-3.56261

>  <r_i_glide_lipo>  (33) 
-0.71207

>  <r_i_glide_hbond>  (33) 
-0.16

>  <r_i_glide_metal>  (33) 
-0

>  <r_i_glide_rewards>  (33) 
-1.29283

>  <r_i_glide_evdw>  (33) 
-15.0173

>  <r_i_glide_ecoul>  (33) 
-5.59462

>  <r_i_glide_erotb>  (33) 
0.192342

>  <r_i_glide_esite>  (33) 
0

>  <r_i_glide_emodel>  (33) 
-22.936

>  <r_i_glide_energy>  (33) 
-20.6119

>  <r_i_glide_einternal>  (33) 
1.18863

>  <r_i_glide_intrahb_reward>  (33) 
-0

>  <i_i_glide_confnum>  (33) 
3

>  <i_i_glide_posenum>  (33) 
22

>  <r_i_glide_eff_state_penalty>  (33) 
0

>  <ligand_id>  (33) 
11

>  <original_smiles>  (33) 
CC1CC2CC(CO)C3(O)CC45COC(C1O)(C24)C(O)C35C

>  <smiles>  (33) 
[H]OC([H])([H])C1([H])C([H])([H])C2([H])C([H])([H])C([H])(C([H])([H])[H])C([H])(O[H])C34OC([H])([H])C5(C([H])([H])C1(O[H])C5(C([H])([H])[H])C3([H])O[H])C24[H]

$$$$
11:0:2
     RDKit          3D

 48 52  0  0  1  0  0  0  0  0999 V2000
    3.4617   -1.3415   -4.5151 C   0  0  0  0  0  0  0  0  0  0  0  0
    3.4250   -1.9777   -3.1405 C   0  0  2  0  0  0  0  0  0  0  0  0
    3.2427   -0.7951   -2.1408 C   0  0  0  0  0  0  0  0  0  0  0  0
    3.3205   -1.3847   -0.7327 C   0  0  2  0  0  0  0  0  0  0  0  0
    3.0342   -0.6910    0.7323 C   0  0  0  0  0  0  0  0  0  0  0  0
    3.6026   -1.3173    2.1482 C   0  0  1  0  0  0  0  0  0  0  0  0
    2.5490   -2.0127    3.0556 C   0  0  0  0  0  0  0  0  0  0  0  0
    1.5302   -1.0885    3.3838 O   0  0  0  0  0  0  0  0  0  0  0  0
    5.0533   -2.1239    2.0878 C   0  0  2  0  0  0  0  0  0  0  0  0
    5.5396   -2.0224    3.3931 O   0  0  0  0  0  0  0  0  0  0  0  0
    5.7268   -1.3701    1.1467 C   0  0  0  0  0  0  0  0  0  0  0  0
    4.8337   -2.5588    0.4885 C   0  0  1  0  0  0  0  0  0  0  0  0
    3.6453   -3.6551    0.5483 C   0  0  0  0  0  0  0  0  0  0  0  0
    3.7728   -4.1226   -0.7924 O   0  0  0  0  0  0  0  0  0  0  0  0
    4.8257   -3.3508   -1.3813 C   0  0  1  0  0  0  0  0  0  0  0  0
    4.6666   -2.9510   -2.8829 C   0  0  1  0  0  0  0  0  0  0  0  0
    4.6072   -4.1309   -3.6550 O   0  0  0  0  0  0  0  0  0  0  0  0
    4.6503   -2.0591   -0.7672 C   0  0  1  0  0  0  0  0  0  0  0  0
    6.1517   -3.6687   -0.5169 C   0  0  1  0  0  0  0  0  0  0  0  0
    7.2876   -2.9990   -1.0555 O   0  0  0  0  0  0  0  0  0  0  0  0
    5.8840   -3.2909    1.0547 C   0  0  1  0  0  0  0  0  0  0  0  0
    6.0138   -4.6440    1.7983 C   0  0  0  0  0  0  0  0  0  0  0  0
    4.3677   -0.7752   -4.7287 H   0  0  0  0  0  0  0  0  0  0  0  0
    2.5885   -0.7190   -4.7303 H   0  0  0  0  0  0  0  0  0  0  0  0
    3.4293   -2.2071   -5.1201 H   0  0  0  0  0  0  0  0  0  0  0  0
    2.5064   -2.5709   -3.1120 H   0  0  0  0  0  0  0  0  0  0  0  0
    4.0040   -0.0393   -2.3366 H   0  0  0  0  0  0  0  0  0  0  0  0
    2.2654   -0.3500   -2.3280 H   0  0  0  0  0  0  0  0  0  0  0  0
    2.5639   -2.1376   -0.8795 H   0  0  0  0  0  0  0  0  0  0  0  0
    3.3996    0.3355    0.6769 H   0  0  0  0  0  0  0  0  0  0  0  0
    1.9590   -0.5438    0.8828 H   0  0  0  0  0  0  0  0  0  0  0  0
    3.8165   -0.4194    2.7404 H   0  0  0  0  0  0  0  0  0  0  0  0
    2.0748   -2.9062    2.6710 H   0  0  0  0  0  0  0  0  0  0  0  0
    3.0324   -2.3222    3.9891 H   0  0  0  0  0  0  0  0  0  0  0  0
    1.1762   -0.7478    2.5760 H   0  0  0  0  0  0  0  0  0  0  0  0
    5.7791   -1.1094    3.4811 H   0  0  0  0  0  0  0  0  0  0  0  0
    5.4169   -0.3395    1.0261 H   0  0  0  0  0  0  0  0  0  0  0  0
    6.8302   -1.3974    1.0879 H   0  0  0  0  0  0  0  0  0  0  0  0
    3.7169   -4.4669    1.2587 H   0  0  0  0  0  0  0  0  0  0  0  0
    2.6222   -3.3271    0.7021 H   0  0  0  0  0  0  0  0  0  0  0  0
    5.5676   -2.4324   -3.2011 H   0  0  0  0  0  0  0  0  0  0  0  0
    3.9836   -4.7222   -3.2335 H   0  0  0  0  0  0  0  0  0  0  0  0
    5.4187   -1.3486   -1.0908 H   0  0  0  0  0  0  0  0  0  0  0  0
    6.3283   -4.7311   -0.6238 H   0  0  0  0  0  0  0  0  0  0  0  0
    7.5167   -3.4145   -1.8728 H   0  0  0  0  0  0  0  0  0  0  0  0
    5.6129   -5.4960    1.2428 H   0  0  0  0  0  0  0  0  0  0  0  0
    5.4935   -4.6270    2.7560 H   0  0  0  0  0  0  0  0  0  0  0  0
    7.0508   -4.8801    2.0185 H   0  0  0  0  0  0  0  0  0  0  0  0
  1  2  1  0
  1 23  1  0
  1 24  1  0
  1 25  1  0
  2 16  1  0
  2  3  1  0
  2 26  1  6
  3  4  1  0
  3 27  1  0
  3 28  1  0
  4 18  1  0
  4  5  1  0
  4 29  1  6
  5  6  1  0
  5 30  1  0
  5 31  1  0
  6  7  1  0
  6  9  1  0
  6 32  1  1
  7  8  1  0
  7 33  1  0
  7 34  1  0
  8 35  1  0
  9 21  1  0
  9 10  1  1
  9 11  1  0
 10 36  1  0
 11 12  1  0
 11 37  1  0
 11 38  1  0
 12 18  1  0
 12 21  1  0
 12 13  1  1
 13 14  1  0
 13 39  1  0
 13 40  1  0
 15 14  1  1
 15 16  1  0
 15 18  1  0
 15 19  1  0
 16 17  1  0
 16 41  1  6
 17 42  1  0
 18 43  1  6
 19 20  1  0
 19 21  1  0
 19 44  1  1
 20 45  1  0
 21 22  1  1
 22 46  1  0
 22 47  1  0
 22 48  1  0
M  END
>  <i_m_ct_stereo_status>  (34) 
1

>  <s_m_source_file>  (34) 
/var/tmp/pbs.5076255.sched01/tmpsofmo5yl/0au1p7r3z.sdf

>  <i_m_source_file_index>  (34) 
15

>  <i_lp_mmshare_version>  (34) 
48012

>  <i_f3d_flags>  (34) 
0

>  <s_epik_input>  (34) 
W0NAXTEyM1tDQEhdNFtDQEBdNShPW0NIMl0yKVtDQEBIXShbT0hdKVtDQEhdKFtDSDNdKVtDSDJdW0NAQEhdNFtDSDJdW0NAQEhdKFtDSDJdW09IXSlbQ0BdKFtPSF0pKFtDSDJdMSlbQ0BdMyhbQ0gzXSlbQ0BASF01W09IXQ==

>  <s_epik_cmdline>  (34) 
J2VwaWtfcHl0aG9uJywgJy1waHQnLCAnMi4wJywgJy1waCcsICc3LjAnLCAnLXRuJywgJzgnLCAnLW1hJywgJzIwMCcsICctaW1hZScsICc8aW5maWxlLm1hZT4nLCAnLW9tYWUnLCAnPG91dGZpbGUubWFlPic=

>  <r_lp_tautomer_probability>  (34) 
1

>  <r_epik_Ionization_Penalty>  (34) 
1.87909e-06

>  <r_epik_Ionization_Penalty_Charging>  (34) 
0

>  <r_epik_Ionization_Penalty_Neutral>  (34) 
1.87909e-06

>  <r_epik_State_Penalty>  (34) 
-0

>  <r_epik_Charging_Adjusted_Penalty>  (34) 
0

>  <i_epik_Tot_Q>  (34) 
0

>  <i_epik_Tot_abs_Q>  (34) 
0

>  <s_lp_Force_Field>  (34) 
OPLS3e

>  <r_lp_Energy>  (34) 
342.932

>  <b_lp_Chiralities_Consistent>  (34) 
1

>  <s_lp_Variant>  (34) 
11:0-1

>  <s_i_glide_gridfile>  (34) 
pfpi4k_grid

>  <i_i_glide_lignum>  (34) 
15

>  <i_i_glide_rotatable_bonds>  (34) 
5

>  <r_i_docking_score>  (34) 
-3.38481

>  <r_i_glide_ligand_efficiency>  (34) 
-0.153855

>  <r_i_glide_ligand_efficiency_sa>  (34) 
-0.431108

>  <r_i_glide_ligand_efficiency_ln>  (34) 
-0.827372

>  <r_i_glide_gscore>  (34) 
-3.38481

>  <r_i_glide_lipo>  (34) 
-0.659222

>  <r_i_glide_hbond>  (34) 
0

>  <r_i_glide_metal>  (34) 
-0

>  <r_i_glide_rewards>  (34) 
-1.29283

>  <r_i_glide_evdw>  (34) 
-16.1381

>  <r_i_glide_ecoul>  (34) 
-5.45466

>  <r_i_glide_erotb>  (34) 
0.192342

>  <r_i_glide_esite>  (34) 
0

>  <r_i_glide_emodel>  (34) 
-23.9783

>  <r_i_glide_energy>  (34) 
-21.5928

>  <r_i_glide_einternal>  (34) 
0.948861

>  <r_i_glide_intrahb_reward>  (34) 
-0

>  <i_i_glide_confnum>  (34) 
3

>  <i_i_glide_posenum>  (34) 
32

>  <r_i_glide_eff_state_penalty>  (34) 
0

>  <ligand_id>  (34) 
11

>  <original_smiles>  (34) 
CC1CC2CC(CO)C3(O)CC45COC(C1O)(C24)C(O)C35C

>  <smiles>  (34) 
[H]OC([H])([H])C1([H])C([H])([H])C2([H])C([H])([H])C([H])(C([H])([H])[H])C([H])(O[H])C34OC([H])([H])C5(C([H])([H])C1(O[H])C5(C([H])([H])[H])C3([H])O[H])C24[H]

$$$$
12:0:0
     RDKit          3D

 67 73  0  0  1  0  0  0  0  0999 V2000
    3.8537   -0.7862   -3.1345 C   0  0  0  0  0  0  0  0  0  0  0  0
    4.4690   -0.8603   -1.8505 O   0  0  0  0  0  0  0  0  0  0  0  0
    5.4136   -1.8528   -1.6192 C   0  0  0  0  0  0  0  0  0  0  0  0
    5.9314   -1.9854   -0.3958 C   0  0  0  0  0  0  0  0  0  0  0  0
    5.0110   -1.9977    0.8649 C   0  0  2  0  0  0  0  0  0  0  0  0
    5.4768   -0.7752    1.6491 C   0  0  0  0  0  0  0  0  0  0  0  0
    5.1334   -3.2458    1.7161 C   0  0  0  0  0  0  0  0  0  0  0  0
    4.8668   -4.2040    0.8103 C   0  0  0  0  0  0  0  0  0  0  0  0
    5.5276   -5.5783    0.7155 C   0  0  0  0  0  0  0  0  0  0  0  0
    3.8477   -3.6754   -0.1212 C   0  0  0  0  0  0  0  0  0  0  0  0
    4.0558   -3.8595   -1.4999 N   0  0  0  0  0  0  0  0  0  0  0  0
    5.0774   -3.1817   -2.2894 C   0  0  0  0  0  0  0  0  0  0  0  0
    3.5797   -2.4559    0.3986 C   0  0  0  0  0  0  0  0  0  0  0  0
    2.5401   -2.5888    1.5801 C   0  0  1  0  0  0  0  0  0  0  0  0
    2.7207   -3.8946    2.4977 C   0  0  2  0  0  0  0  0  0  0  0  0
    2.6041   -5.3792    2.0249 C   0  0  0  0  0  0  0  0  0  0  0  0
    1.8707   -4.0935    3.6600 O   0  0  0  0  0  0  0  0  0  0  0  0
    1.0129   -3.0535    4.0405 C   0  0  0  0  0  0  0  0  0  0  0  0
    1.9292   -1.8729    4.0616 C   0  0  2  0  0  0  0  0  0  0  0  0
    1.4581   -0.5373    3.5554 C   0  0  1  0  0  0  0  0  0  0  0  0
    0.6857    0.6017    4.2609 C   0  0  0  0  0  0  0  0  0  0  0  0
   -0.8396    0.3914    4.1283 C   0  0  0  0  0  0  0  0  0  0  0  0
    0.9927    0.7352    5.7733 C   0  0  0  0  0  0  0  0  0  0  0  0
    1.0229    1.8980    3.4680 C   0  0  0  0  0  0  0  0  0  0  0  0
    0.6106    2.9724    3.8932 O   0  0  0  0  0  0  0  0  0  0  0  0
    1.8167    1.7701    2.2109 C   0  0  0  0  0  0  0  0  0  0  0  0
    2.6541    0.7256    2.0327 C   0  0  0  0  0  0  0  0  0  0  0  0
    2.9243   -0.2966    3.1387 C   0  0  1  0  0  0  0  0  0  0  0  0
    3.8970    0.3370    4.1643 C   0  0  0  0  0  0  0  0  0  0  0  0
    2.9687   -1.8835    2.8750 C   0  0  2  0  0  0  0  0  0  0  0  0
    4.0571   -3.1103    2.9133 C   0  0  2  0  0  0  0  0  0  0  0  0
    4.7146   -3.4818    4.2426 C   0  0  0  0  0  0  0  0  0  0  0  0
    3.3182    0.1575   -3.2444 H   0  0  0  0  0  0  0  0  0  0  0  0
    3.1094   -1.5718   -3.2585 H   0  0  0  0  0  0  0  0  0  0  0  0
    4.5738   -0.8413   -3.9512 H   0  0  0  0  0  0  0  0  0  0  0  0
    6.6631   -2.7830   -0.2686 H   0  0  0  0  0  0  0  0  0  0  0  0
    5.4146   -0.9448    2.7102 H   0  0  0  0  0  0  0  0  0  0  0  0
    5.0721    0.1691    1.3232 H   0  0  0  0  0  0  0  0  0  0  0  0
    6.5492   -0.6621    1.5217 H   0  0  0  0  0  0  0  0  0  0  0  0
    4.8823   -6.2841    0.1899 H   0  0  0  0  0  0  0  0  0  0  0  0
    5.7392   -5.9709    1.7086 H   0  0  0  0  0  0  0  0  0  0  0  0
    6.4674   -5.5194    0.1706 H   0  0  0  0  0  0  0  0  0  0  0  0
    4.7509   -3.1145   -3.3285 H   0  0  0  0  0  0  0  0  0  0  0  0
    5.9530   -3.8276   -2.2904 H   0  0  0  0  0  0  0  0  0  0  0  0
    1.5207   -2.4249    1.2776 H   0  0  0  0  0  0  0  0  0  0  0  0
    2.6368   -5.5294    0.9543 H   0  0  0  0  0  0  0  0  0  0  0  0
    1.6528   -5.8355    2.2996 H   0  0  0  0  0  0  0  0  0  0  0  0
    3.3866   -5.9969    2.4654 H   0  0  0  0  0  0  0  0  0  0  0  0
    0.2029   -2.9445    3.3296 H   0  0  0  0  0  0  0  0  0  0  0  0
    0.5829   -3.2454    5.0211 H   0  0  0  0  0  0  0  0  0  0  0  0
    2.4330   -1.7746    5.0136 H   0  0  0  0  0  0  0  0  0  0  0  0
    0.8781   -0.7859    2.6672 H   0  0  0  0  0  0  0  0  0  0  0  0
   -1.1553   -0.5693    4.5474 H   0  0  0  0  0  0  0  0  0  0  0  0
   -1.1581    0.4256    3.0855 H   0  0  0  0  0  0  0  0  0  0  0  0
   -1.3935    1.1787    4.6419 H   0  0  0  0  0  0  0  0  0  0  0  0
    0.4638   -0.0352    6.3407 H   0  0  0  0  0  0  0  0  0  0  0  0
    0.6775    1.7005    6.1689 H   0  0  0  0  0  0  0  0  0  0  0  0
    2.0412    0.6189    6.0164 H   0  0  0  0  0  0  0  0  0  0  0  0
    1.6451    2.5146    1.4425 H   0  0  0  0  0  0  0  0  0  0  0  0
    3.1332    0.5899    1.0796 H   0  0  0  0  0  0  0  0  0  0  0  0
    4.1751   -0.3641    4.9437 H   0  0  0  0  0  0  0  0  0  0  0  0
    3.4813    1.2265    4.6252 H   0  0  0  0  0  0  0  0  0  0  0  0
    4.8028    0.7137    3.7024 H   0  0  0  0  0  0  0  0  0  0  0  0
    3.9846   -3.5052    5.0475 H   0  0  0  0  0  0  0  0  0  0  0  0
    5.4862   -2.7619    4.5331 H   0  0  0  0  0  0  0  0  0  0  0  0
    5.1679   -4.4766    4.2118 H   0  0  0  0  0  0  0  0  0  0  0  0
    3.7794   -4.7644   -1.8580 H   0  0  0  0  0  0  0  0  0  0  0  0
  1  2  1  0
  1 33  1  0
  1 34  1  0
  1 35  1  0
  2  3  1  0
  3 12  1  0
  3  4  2  0
  4  5  1  0
  4 36  1  0
  5 13  1  0
  5  6  1  1
  5  7  1  0
  6 37  1  0
  6 38  1  0
  6 39  1  0
  7 31  1  0
  7  8  2  0
  8  9  1  0
  8 10  1  0
  9 40  1  0
  9 41  1  0
  9 42  1  0
 10 11  1  0
 10 13  2  0
 11 12  1  0
 11 67  1  0
 12 43  1  0
 12 44  1  0
 13 14  1  0
 14 30  1  0
 14 15  1  0
 14 45  1  6
 15 31  1  0
 15 16  1  6
 15 17  1  0
 16 46  1  0
 16 47  1  0
 16 48  1  0
 17 18  1  0
 18 19  1  0
 18 49  1  0
 18 50  1  0
 19 30  1  0
 19 20  1  0
 19 51  1  1
 20 28  1  0
 20 21  1  0
 20 52  1  6
 21 22  1  0
 21 23  1  0
 21 24  1  0
 22 53  1  0
 22 54  1  0
 22 55  1  0
 23 56  1  0
 23 57  1  0
 23 58  1  0
 24 25  2  0
 24 26  1  0
 26 27  2  0
 26 59  1  0
 27 28  1  0
 27 60  1  0
 28 29  1  1
 30 28  1  6
 29 61  1  0
 29 62  1  0
 29 63  1  0
 30 31  1  0
 31 32  1  1
 32 64  1  0
 32 65  1  0
 32 66  1  0
M  END
>  <i_m_ct_stereo_status>  (35) 
1

>  <s_m_source_file>  (35) 
/var/tmp/pbs.5076255.sched01/tmpsofmo5yl/0au1p7r3z.sdf

>  <i_m_source_file_index>  (35) 
16

>  <i_lp_mmshare_version>  (35) 
48012

>  <i_f3d_flags>  (35) 
0

>  <s_epik_input>  (35) 
W0NIM11PQyg9W0NIXTEpW0NIMl1OPUMyQyhbQ0gzXSk9QyhbQ0BdMShbQ0gzXSlbQ0BASF0yW0NAQEhdM1tDQF00NTYpW0NAXTYoW0NIM10pW0NAQF0zKFtDSDNdKU9bQ0gyXVtDQEBIXTRbQ0BASF03W0NAXTUoW0NIM10pW0NIXT1bQ0hdQyg9TylDNyhbQ0gzXSlbQ0gzXQ==

>  <s_epik_cmdline>  (35) 
J2VwaWtfcHl0aG9uJywgJy1waHQnLCAnMi4wJywgJy1waCcsICc3LjAnLCAnLXRuJywgJzgnLCAnLW1hJywgJzIwMCcsICctaW1hZScsICc8aW5maWxlLm1hZT4nLCAnLW9tYWUnLCAnPG91dGZpbGUubWFlPic=

>  <r_lp_tautomer_probability>  (35) 
1

>  <r_epik_Ionization_Penalty>  (35) 
1.16645e-06

>  <r_epik_Ionization_Penalty_Charging>  (35) 
3.85097e-12

>  <r_epik_Ionization_Penalty_Neutral>  (35) 
1.16645e-06

>  <r_epik_State_Penalty>  (35) 
-0

>  <r_epik_Charging_Adjusted_Penalty>  (35) 
3.85097e-12

>  <i_epik_Tot_Q>  (35) 
0

>  <i_epik_Tot_abs_Q>  (35) 
0

>  <s_epik_Chemistry_Notes>  (35) 
This compound has an imine and may undergo hydrolysis.

>  <s_lp_Force_Field>  (35) 
OPLS3e

>  <r_lp_Energy>  (35) 
328.498

>  <b_lp_Chiralities_Consistent>  (35) 
1

>  <s_lp_Variant>  (35) 
12:0-1

>  <s_i_glide_gridfile>  (35) 
pfpi4k_grid

>  <i_i_glide_lignum>  (35) 
16

>  <i_i_glide_rotatable_bonds>  (35) 
1

>  <r_i_docking_score>  (35) 
-3.40092

>  <r_i_glide_ligand_efficiency>  (35) 
-0.106279

>  <r_i_glide_ligand_efficiency_sa>  (35) 
-0.337414

>  <r_i_glide_ligand_efficiency_ln>  (35) 
-0.761558

>  <r_i_glide_gscore>  (35) 
-3.40092

>  <r_i_glide_lipo>  (35) 
-0.692838

>  <r_i_glide_hbond>  (35) 
-0.32

>  <r_i_glide_metal>  (35) 
-0

>  <r_i_glide_rewards>  (35) 
-0.452847

>  <r_i_glide_evdw>  (35) 
-28.9783

>  <r_i_glide_ecoul>  (35) 
-2.79429

>  <r_i_glide_erotb>  (35) 
0

>  <r_i_glide_esite>  (35) 
-0.0671717

>  <r_i_glide_emodel>  (35) 
-37.448

>  <r_i_glide_energy>  (35) 
-31.7726

>  <r_i_glide_einternal>  (35) 
0.714807

>  <r_i_glide_intrahb_reward>  (35) 
-0

>  <i_i_glide_confnum>  (35) 
2

>  <i_i_glide_posenum>  (35) 
2

>  <r_i_glide_eff_state_penalty>  (35) 
0

>  <ligand_id>  (35) 
12

>  <original_smiles>  (35) 
COC1=CC2(C)C3=C(C)C(=NC1)C2C1C2(C)OCC4C5C(C)(C)C(=O)C=CC5(C)C41C32C

>  <smiles>  (35) 
[H]C1=C([H])C2(C([H])([H])[H])C([H])(C3([H])C([H])([H])OC4(C([H])([H])[H])C5([H])C6=C7C(C([H])([H])[H])=C(C6(C([H])([H])[H])C([H])=C(OC([H])([H])[H])C([H])([H])N7[H])C4(C([H])([H])[H])C532)C(C([H])([H])[H])(C([H])([H])[H])C1=O

$$$$
12:0:1
     RDKit          3D

 67 73  0  0  1  0  0  0  0  0999 V2000
    2.1773   -3.1445   -2.0796 C   0  0  0  0  0  0  0  0  0  0  0  0
    2.5945   -3.3372   -0.7239 O   0  0  0  0  0  0  0  0  0  0  0  0
    3.7105   -2.6404   -0.3069 C   0  0  0  0  0  0  0  0  0  0  0  0
    4.0935   -2.7071    0.9788 C   0  0  0  0  0  0  0  0  0  0  0  0
    4.0756   -4.0695    1.7320 C   0  0  2  0  0  0  0  0  0  0  0  0
    3.0516   -3.8292    2.8485 C   0  0  0  0  0  0  0  0  0  0  0  0
    5.4121   -4.4754    2.3236 C   0  0  0  0  0  0  0  0  0  0  0  0
    6.1888   -4.4471    1.2257 C   0  0  0  0  0  0  0  0  0  0  0  0
    7.6482   -3.9939    1.1635 C   0  0  0  0  0  0  0  0  0  0  0  0
    5.3848   -4.8870    0.0876 C   0  0  0  0  0  0  0  0  0  0  0  0
    5.4445   -4.1406   -1.1055 N   0  0  0  0  0  0  0  0  0  0  0  0
    4.8792   -2.8115   -1.2761 C   0  0  0  0  0  0  0  0  0  0  0  0
    4.1991   -5.2163    0.6684 C   0  0  0  0  0  0  0  0  0  0  0  0
    4.2825   -6.6676    1.2872 C   0  0  1  0  0  0  0  0  0  0  0  0
    5.6934   -7.0368    1.9676 C   0  0  2  0  0  0  0  0  0  0  0  0
    7.0755   -7.1232    1.2512 C   0  0  0  0  0  0  0  0  0  0  0  0
    5.8553   -8.3097    2.6392 O   0  0  0  0  0  0  0  0  0  0  0  0
    4.7233   -9.1232    2.8039 C   0  0  0  0  0  0  0  0  0  0  0  0
    3.7414   -8.1656    3.4053 C   0  0  2  0  0  0  0  0  0  0  0  0
    2.2927   -8.2103    2.9994 C   0  0  1  0  0  0  0  0  0  0  0  0
    1.1147   -9.0667    3.5351 C   0  0  0  0  0  0  0  0  0  0  0  0
    1.0341  -10.4082    2.7763 C   0  0  0  0  0  0  0  0  0  0  0  0
    1.2073   -9.4170    5.0364 C   0  0  0  0  0  0  0  0  0  0  0  0
   -0.1702   -8.2558    3.1725 C   0  0  0  0  0  0  0  0  0  0  0  0
   -1.2761   -8.6286    3.5704 O   0  0  0  0  0  0  0  0  0  0  0  0
   -0.0303   -7.0463    2.3249 C   0  0  0  0  0  0  0  0  0  0  0  0
    1.1236   -6.3404    2.3294 C   0  0  0  0  0  0  0  0  0  0  0  0
    2.2831   -6.6902    3.2526 C   0  0  1  0  0  0  0  0  0  0  0  0
    1.9560   -6.1738    4.6778 C   0  0  0  0  0  0  0  0  0  0  0  0
    3.8105   -6.7382    2.7518 C   0  0  2  0  0  0  0  0  0  0  0  0
    5.2119   -5.9221    3.0054 C   0  0  2  0  0  0  0  0  0  0  0  0
    5.8450   -5.9289    4.3935 C   0  0  0  0  0  0  0  0  0  0  0  0
    1.1408   -3.4465   -2.2042 H   0  0  0  0  0  0  0  0  0  0  0  0
    2.7638   -3.7642   -2.7558 H   0  0  0  0  0  0  0  0  0  0  0  0
    2.2400   -2.1064   -2.4133 H   0  0  0  0  0  0  0  0  0  0  0  0
    5.0180   -2.1916    1.2425 H   0  0  0  0  0  0  0  0  0  0  0  0
    3.3277   -4.3504    3.7495 H   0  0  0  0  0  0  0  0  0  0  0  0
    2.0157   -3.9302    2.5749 H   0  0  0  0  0  0  0  0  0  0  0  0
    3.1315   -2.7960    3.1772 H   0  0  0  0  0  0  0  0  0  0  0  0
    8.1557   -4.4238    0.3028 H   0  0  0  0  0  0  0  0  0  0  0  0
    8.1832   -4.3001    2.0596 H   0  0  0  0  0  0  0  0  0  0  0  0
    7.7019   -2.9107    1.0695 H   0  0  0  0  0  0  0  0  0  0  0  0
    4.6247   -2.6546   -2.3261 H   0  0  0  0  0  0  0  0  0  0  0  0
    5.6636   -2.0932   -1.0466 H   0  0  0  0  0  0  0  0  0  0  0  0
    3.9372   -7.4420    0.6142 H   0  0  0  0  0  0  0  0  0  0  0  0
    7.1351   -6.6335    0.2888 H   0  0  0  0  0  0  0  0  0  0  0  0
    7.3665   -8.1491    1.0168 H   0  0  0  0  0  0  0  0  0  0  0  0
    7.8730   -6.6958    1.8581 H   0  0  0  0  0  0  0  0  0  0  0  0
    4.3974   -9.5531    1.8604 H   0  0  0  0  0  0  0  0  0  0  0  0
    4.9484   -9.9432    3.4862 H   0  0  0  0  0  0  0  0  0  0  0  0
    3.8506   -8.0985    4.4775 H   0  0  0  0  0  0  0  0  0  0  0  0
    2.3279   -8.3949    1.9245 H   0  0  0  0  0  0  0  0  0  0  0  0
    1.9605  -10.9825    2.8620 H   0  0  0  0  0  0  0  0  0  0  0  0
    0.8386  -10.2558    1.7160 H   0  0  0  0  0  0  0  0  0  0  0  0
    0.2218  -11.0309    3.1596 H   0  0  0  0  0  0  0  0  0  0  0  0
    1.9254  -10.2241    5.2007 H   0  0  0  0  0  0  0  0  0  0  0  0
    0.2495   -9.7571    5.4360 H   0  0  0  0  0  0  0  0  0  0  0  0
    1.5419   -8.5929    5.6572 H   0  0  0  0  0  0  0  0  0  0  0  0
   -0.8651   -6.7983    1.6852 H   0  0  0  0  0  0  0  0  0  0  0  0
    1.2711   -5.5239    1.6432 H   0  0  0  0  0  0  0  0  0  0  0  0
    2.7787   -6.3366    5.3678 H   0  0  0  0  0  0  0  0  0  0  0  0
    1.0633   -6.6353    5.0896 H   0  0  0  0  0  0  0  0  0  0  0  0
    1.7019   -5.1186    4.6913 H   0  0  0  0  0  0  0  0  0  0  0  0
    5.8217   -6.9287    4.8162 H   0  0  0  0  0  0  0  0  0  0  0  0
    5.3199   -5.2695    5.0889 H   0  0  0  0  0  0  0  0  0  0  0  0
    6.8983   -5.6335    4.3620 H   0  0  0  0  0  0  0  0  0  0  0  0
    6.2628   -4.2954   -1.6613 H   0  0  0  0  0  0  0  0  0  0  0  0
  1  2  1  0
  1 33  1  0
  1 34  1  0
  1 35  1  0
  2  3  1  0
  3 12  1  0
  3  4  2  0
  4  5  1  0
  4 36  1  0
  5 13  1  0
  5  6  1  1
  5  7  1  0
  6 37  1  0
  6 38  1  0
  6 39  1  0
  7 31  1  0
  7  8  2  0
  8  9  1  0
  8 10  1  0
  9 40  1  0
  9 41  1  0
  9 42  1  0
 10 11  1  0
 10 13  2  0
 11 12  1  0
 11 67  1  0
 12 43  1  0
 12 44  1  0
 13 14  1  0
 14 30  1  0
 14 15  1  0
 14 45  1  6
 15 31  1  0
 15 16  1  6
 15 17  1  0
 16 46  1  0
 16 47  1  0
 16 48  1  0
 17 18  1  0
 18 19  1  0
 18 49  1  0
 18 50  1  0
 19 30  1  0
 19 20  1  0
 19 51  1  1
 20 28  1  0
 20 21  1  0
 20 52  1  6
 21 22  1  0
 21 23  1  0
 21 24  1  0
 22 53  1  0
 22 54  1  0
 22 55  1  0
 23 56  1  0
 23 57  1  0
 23 58  1  0
 24 25  2  0
 24 26  1  0
 26 27  2  0
 26 59  1  0
 27 28  1  0
 27 60  1  0
 28 29  1  1
 30 28  1  6
 29 61  1  0
 29 62  1  0
 29 63  1  0
 30 31  1  0
 31 32  1  1
 32 64  1  0
 32 65  1  0
 32 66  1  0
M  END
>  <i_m_ct_stereo_status>  (36) 
1

>  <s_m_source_file>  (36) 
/var/tmp/pbs.5076255.sched01/tmpsofmo5yl/0au1p7r3z.sdf

>  <i_m_source_file_index>  (36) 
16

>  <i_lp_mmshare_version>  (36) 
48012

>  <i_f3d_flags>  (36) 
0

>  <s_epik_input>  (36) 
W0NIM11PQyg9W0NIXTEpW0NIMl1OPUMyQyhbQ0gzXSk9QyhbQ0BdMShbQ0gzXSlbQ0BASF0yW0NAQEhdM1tDQF00NTYpW0NAXTYoW0NIM10pW0NAQF0zKFtDSDNdKU9bQ0gyXVtDQEBIXTRbQ0BASF03W0NAXTUoW0NIM10pW0NIXT1bQ0hdQyg9TylDNyhbQ0gzXSlbQ0gzXQ==

>  <s_epik_cmdline>  (36) 
J2VwaWtfcHl0aG9uJywgJy1waHQnLCAnMi4wJywgJy1waCcsICc3LjAnLCAnLXRuJywgJzgnLCAnLW1hJywgJzIwMCcsICctaW1hZScsICc8aW5maWxlLm1hZT4nLCAnLW9tYWUnLCAnPG91dGZpbGUubWFlPic=

>  <r_lp_tautomer_probability>  (36) 
1

>  <r_epik_Ionization_Penalty>  (36) 
1.16645e-06

>  <r_epik_Ionization_Penalty_Charging>  (36) 
3.85097e-12

>  <r_epik_Ionization_Penalty_Neutral>  (36) 
1.16645e-06

>  <r_epik_State_Penalty>  (36) 
-0

>  <r_epik_Charging_Adjusted_Penalty>  (36) 
3.85097e-12

>  <i_epik_Tot_Q>  (36) 
0

>  <i_epik_Tot_abs_Q>  (36) 
0

>  <s_epik_Chemistry_Notes>  (36) 
This compound has an imine and may undergo hydrolysis.

>  <s_lp_Force_Field>  (36) 
OPLS3e

>  <r_lp_Energy>  (36) 
328.498

>  <b_lp_Chiralities_Consistent>  (36) 
1

>  <s_lp_Variant>  (36) 
12:0-1

>  <s_i_glide_gridfile>  (36) 
pfpi4k_grid

>  <i_i_glide_lignum>  (36) 
16

>  <i_i_glide_rotatable_bonds>  (36) 
1

>  <r_i_docking_score>  (36) 
-2.47569

>  <r_i_glide_ligand_efficiency>  (36) 
-0.0773653

>  <r_i_glide_ligand_efficiency_sa>  (36) 
-0.24562

>  <r_i_glide_ligand_efficiency_ln>  (36) 
-0.554375

>  <r_i_glide_gscore>  (36) 
-2.47569

>  <r_i_glide_lipo>  (36) 
-0.823023

>  <r_i_glide_hbond>  (36) 
0

>  <r_i_glide_metal>  (36) 
-0

>  <r_i_glide_rewards>  (36) 
-0.452847

>  <r_i_glide_evdw>  (36) 
-27.5703

>  <r_i_glide_ecoul>  (36) 
1.46605

>  <r_i_glide_erotb>  (36) 
0

>  <r_i_glide_esite>  (36) 
-0.0412105

>  <r_i_glide_emodel>  (36) 
-30.0822

>  <r_i_glide_energy>  (36) 
-26.1043

>  <r_i_glide_einternal>  (36) 
0.620911

>  <r_i_glide_intrahb_reward>  (36) 
-0

>  <i_i_glide_confnum>  (36) 
1

>  <i_i_glide_posenum>  (36) 
9

>  <r_i_glide_eff_state_penalty>  (36) 
0

>  <ligand_id>  (36) 
12

>  <original_smiles>  (36) 
COC1=CC2(C)C3=C(C)C(=NC1)C2C1C2(C)OCC4C5C(C)(C)C(=O)C=CC5(C)C41C32C

>  <smiles>  (36) 
[H]C1=C([H])C2(C([H])([H])[H])C([H])(C3([H])C([H])([H])OC4(C([H])([H])[H])C5([H])C6=C7C(C([H])([H])[H])=C(C6(C([H])([H])[H])C([H])=C(OC([H])([H])[H])C([H])([H])N7[H])C4(C([H])([H])[H])C532)C(C([H])([H])[H])(C([H])([H])[H])C1=O

$$$$
12:0:2
     RDKit          3D

 67 73  0  0  1  0  0  0  0  0999 V2000
   -0.2894   -6.9777    0.7497 C   0  0  0  0  0  0  0  0  0  0  0  0
   -0.6164   -6.6826    2.1012 O   0  0  0  0  0  0  0  0  0  0  0  0
   -0.0311   -7.4959    3.0449 C   0  0  0  0  0  0  0  0  0  0  0  0
    1.2693   -7.8372    2.9603 C   0  0  0  0  0  0  0  0  0  0  0  0
    2.3681   -6.7369    2.8098 C   0  0  2  0  0  0  0  0  0  0  0  0
    3.0699   -7.1117    1.4920 C   0  0  0  0  0  0  0  0  0  0  0  0
    3.4029   -6.6527    3.9115 C   0  0  0  0  0  0  0  0  0  0  0  0
    2.6116   -6.5312    4.9891 C   0  0  0  0  0  0  0  0  0  0  0  0
    2.8395   -7.1550    6.3592 C   0  0  0  0  0  0  0  0  0  0  0  0
    1.4775   -5.6860    4.5756 C   0  0  0  0  0  0  0  0  0  0  0  0
    0.1789   -5.9934    4.9894 N   0  0  0  0  0  0  0  0  0  0  0  0
   -0.5268   -7.1617    4.4466 C   0  0  0  0  0  0  0  0  0  0  0  0
    1.7915   -5.3572    3.2953 C   0  0  0  0  0  0  0  0  0  0  0  0
    2.8044   -4.1430    3.2512 C   0  0  1  0  0  0  0  0  0  0  0  0
    3.9427   -4.1659    4.3884 C   0  0  2  0  0  0  0  0  0  0  0  0
    3.6759   -4.0878    5.9225 C   0  0  0  0  0  0  0  0  0  0  0  0
    4.9914   -3.1661    4.3815 O   0  0  0  0  0  0  0  0  0  0  0  0
    5.0488   -2.2945    3.2779 C   0  0  0  0  0  0  0  0  0  0  0  0
    5.0313   -3.2410    2.1120 C   0  0  2  0  0  0  0  0  0  0  0  0
    4.2296   -2.8803    0.8989 C   0  0  1  0  0  0  0  0  0  0  0  0
    4.6496   -2.0572   -0.3443 C   0  0  0  0  0  0  0  0  0  0  0  0
    4.3257   -0.5664   -0.1307 C   0  0  0  0  0  0  0  0  0  0  0  0
    6.1436   -2.1526   -0.7344 C   0  0  0  0  0  0  0  0  0  0  0  0
    3.7160   -2.5280   -1.5122 C   0  0  0  0  0  0  0  0  0  0  0  0
    3.8871   -2.1075   -2.6563 O   0  0  0  0  0  0  0  0  0  0  0  0
    2.6111   -3.4614   -1.1732 C   0  0  0  0  0  0  0  0  0  0  0  0
    2.7090   -4.2945   -0.1094 C   0  0  0  0  0  0  0  0  0  0  0  0
    3.9793   -4.3972    0.7339 C   0  0  1  0  0  0  0  0  0  0  0  0
    5.0346   -5.2316   -0.0542 C   0  0  0  0  0  0  0  0  0  0  0  0
    4.0207   -4.4273    2.3401 C   0  0  2  0  0  0  0  0  0  0  0  0
    4.4080   -5.4563    3.5570 C   0  0  2  0  0  0  0  0  0  0  0  0
    5.8569   -5.9149    3.7061 C   0  0  0  0  0  0  0  0  0  0  0  0
   -0.5806   -6.1325    0.1179 H   0  0  0  0  0  0  0  0  0  0  0  0
   -0.9035   -7.8249    0.4324 H   0  0  0  0  0  0  0  0  0  0  0  0
    0.7634   -7.1842    0.5706 H   0  0  0  0  0  0  0  0  0  0  0  0
    1.6086   -8.4948    3.7561 H   0  0  0  0  0  0  0  0  0  0  0  0
    4.1513   -6.9571    1.5364 H   0  0  0  0  0  0  0  0  0  0  0  0
    2.5939   -6.7379    0.5971 H   0  0  0  0  0  0  0  0  0  0  0  0
    3.0360   -8.1892    1.3509 H   0  0  0  0  0  0  0  0  0  0  0  0
    2.3558   -6.5667    7.1393 H   0  0  0  0  0  0  0  0  0  0  0  0
    3.9058   -7.2107    6.5756 H   0  0  0  0  0  0  0  0  0  0  0  0
    2.4331   -8.1661    6.3929 H   0  0  0  0  0  0  0  0  0  0  0  0
   -1.6072   -6.9884    4.4551 H   0  0  0  0  0  0  0  0  0  0  0  0
   -0.3317   -8.0150    5.1006 H   0  0  0  0  0  0  0  0  0  0  0  0
    2.3132   -3.1802    3.1532 H   0  0  0  0  0  0  0  0  0  0  0  0
    2.6554   -4.2619    6.2406 H   0  0  0  0  0  0  0  0  0  0  0  0
    3.8789   -3.0929    6.3214 H   0  0  0  0  0  0  0  0  0  0  0  0
    4.3213   -4.7796    6.4670 H   0  0  0  0  0  0  0  0  0  0  0  0
    4.2157   -1.5912    3.2914 H   0  0  0  0  0  0  0  0  0  0  0  0
    5.9676   -1.7163    3.2948 H   0  0  0  0  0  0  0  0  0  0  0  0
    6.0255   -3.6033    1.8797 H   0  0  0  0  0  0  0  0  0  0  0  0
    3.3257   -2.3991    1.2706 H   0  0  0  0  0  0  0  0  0  0  0  0
    4.8550   -0.1571    0.7326 H   0  0  0  0  0  0  0  0  0  0  0  0
    3.2594   -0.4070    0.0346 H   0  0  0  0  0  0  0  0  0  0  0  0
    4.6147    0.0189   -1.0063 H   0  0  0  0  0  0  0  0  0  0  0  0
    6.7448   -1.5292   -0.0696 H   0  0  0  0  0  0  0  0  0  0  0  0
    6.3239   -1.8201   -1.7594 H   0  0  0  0  0  0  0  0  0  0  0  0
    6.5490   -3.1540   -0.6517 H   0  0  0  0  0  0  0  0  0  0  0  0
    1.7167   -3.4447   -1.7822 H   0  0  0  0  0  0  0  0  0  0  0  0
    1.8752   -4.9129    0.1571 H   0  0  0  0  0  0  0  0  0  0  0  0
    5.9553   -5.3792    0.5084 H   0  0  0  0  0  0  0  0  0  0  0  0
    5.2875   -4.7879   -1.0147 H   0  0  0  0  0  0  0  0  0  0  0  0
    4.6614   -6.2103   -0.3443 H   0  0  0  0  0  0  0  0  0  0  0  0
    6.5409   -5.0780    3.5877 H   0  0  0  0  0  0  0  0  0  0  0  0
    6.1211   -6.6637    2.9571 H   0  0  0  0  0  0  0  0  0  0  0  0
    6.0407   -6.3391    4.6954 H   0  0  0  0  0  0  0  0  0  0  0  0
    0.0087   -5.8848    5.9788 H   0  0  0  0  0  0  0  0  0  0  0  0
  1  2  1  0
  1 33  1  0
  1 34  1  0
  1 35  1  0
  2  3  1  0
  3 12  1  0
  3  4  2  0
  4  5  1  0
  4 36  1  0
  5 13  1  0
  5  6  1  6
  5  7  1  0
  6 37  1  0
  6 38  1  0
  6 39  1  0
  7 31  1  0
  7  8  2  0
  8  9  1  0
  8 10  1  0
  9 40  1  0
  9 41  1  0
  9 42  1  0
 10 11  1  0
 10 13  2  0
 11 12  1  0
 11 67  1  0
 12 43  1  0
 12 44  1  0
 13 14  1  0
 14 30  1  0
 14 15  1  0
 14 45  1  6
 15 31  1  0
 15 16  1  1
 15 17  1  0
 16 46  1  0
 16 47  1  0
 16 48  1  0
 17 18  1  0
 18 19  1  0
 18 49  1  0
 18 50  1  0
 19 30  1  0
 19 20  1  0
 19 51  1  6
 20 28  1  0
 20 21  1  0
 20 52  1  1
 21 22  1  0
 21 23  1  0
 21 24  1  0
 22 53  1  0
 22 54  1  0
 22 55  1  0
 23 56  1  0
 23 57  1  0
 23 58  1  0
 24 25  2  0
 24 26  1  0
 26 27  2  0
 26 59  1  0
 27 28  1  0
 27 60  1  0
 28 29  1  6
 30 28  1  6
 29 61  1  0
 29 62  1  0
 29 63  1  0
 30 31  1  0
 31 32  1  6
 32 64  1  0
 32 65  1  0
 32 66  1  0
M  END
>  <i_m_ct_stereo_status>  (37) 
1

>  <s_m_source_file>  (37) 
/var/tmp/pbs.5076255.sched01/tmpsofmo5yl/0au1p7r3z.sdf

>  <i_m_source_file_index>  (37) 
16

>  <i_lp_mmshare_version>  (37) 
48012

>  <i_f3d_flags>  (37) 
0

>  <s_epik_input>  (37) 
W0NIM11PQyg9W0NIXTEpW0NIMl1OPUMyQyhbQ0gzXSk9QyhbQ0BdMShbQ0gzXSlbQ0BASF0yW0NAQEhdM1tDQF00NTYpW0NAXTYoW0NIM10pW0NAQF0zKFtDSDNdKU9bQ0gyXVtDQEBIXTRbQ0BASF03W0NAXTUoW0NIM10pW0NIXT1bQ0hdQyg9TylDNyhbQ0gzXSlbQ0gzXQ==

>  <s_epik_cmdline>  (37) 
J2VwaWtfcHl0aG9uJywgJy1waHQnLCAnMi4wJywgJy1waCcsICc3LjAnLCAnLXRuJywgJzgnLCAnLW1hJywgJzIwMCcsICctaW1hZScsICc8aW5maWxlLm1hZT4nLCAnLW9tYWUnLCAnPG91dGZpbGUubWFlPic=

>  <r_lp_tautomer_probability>  (37) 
1

>  <r_epik_Ionization_Penalty>  (37) 
1.16645e-06

>  <r_epik_Ionization_Penalty_Charging>  (37) 
3.85097e-12

>  <r_epik_Ionization_Penalty_Neutral>  (37) 
1.16645e-06

>  <r_epik_State_Penalty>  (37) 
-0

>  <r_epik_Charging_Adjusted_Penalty>  (37) 
3.85097e-12

>  <i_epik_Tot_Q>  (37) 
0

>  <i_epik_Tot_abs_Q>  (37) 
0

>  <s_epik_Chemistry_Notes>  (37) 
This compound has an imine and may undergo hydrolysis.

>  <s_lp_Force_Field>  (37) 
OPLS3e

>  <r_lp_Energy>  (37) 
328.498

>  <b_lp_Chiralities_Consistent>  (37) 
1

>  <s_lp_Variant>  (37) 
12:0-1

>  <s_i_glide_gridfile>  (37) 
pfpi4k_grid

>  <i_i_glide_lignum>  (37) 
16

>  <i_i_glide_rotatable_bonds>  (37) 
1

>  <r_i_docking_score>  (37) 
-2.45882

>  <r_i_glide_ligand_efficiency>  (37) 
-0.076838

>  <r_i_glide_ligand_efficiency_sa>  (37) 
-0.243945

>  <r_i_glide_ligand_efficiency_ln>  (37) 
-0.550596

>  <r_i_glide_gscore>  (37) 
-2.45882

>  <r_i_glide_lipo>  (37) 
-0.225046

>  <r_i_glide_hbond>  (37) 
-0.16

>  <r_i_glide_metal>  (37) 
-0

>  <r_i_glide_rewards>  (37) 
-0.452847

>  <r_i_glide_evdw>  (37) 
-25.4352

>  <r_i_glide_ecoul>  (37) 
-2.00059

>  <r_i_glide_erotb>  (37) 
0

>  <r_i_glide_esite>  (37) 
-0.0490718

>  <r_i_glide_emodel>  (37) 
-31.4816

>  <r_i_glide_energy>  (37) 
-27.4358

>  <r_i_glide_einternal>  (37) 
0.0481919

>  <r_i_glide_intrahb_reward>  (37) 
-0

>  <i_i_glide_confnum>  (37) 
1

>  <i_i_glide_posenum>  (37) 
13

>  <r_i_glide_eff_state_penalty>  (37) 
0

>  <ligand_id>  (37) 
12

>  <original_smiles>  (37) 
COC1=CC2(C)C3=C(C)C(=NC1)C2C1C2(C)OCC4C5C(C)(C)C(=O)C=CC5(C)C41C32C

>  <smiles>  (37) 
[H]C1=C([H])C2(C([H])([H])[H])C([H])(C3([H])C([H])([H])OC4(C([H])([H])[H])C5([H])C6=C7C(C([H])([H])[H])=C(C6(C([H])([H])[H])C([H])=C(OC([H])([H])[H])C([H])([H])N7[H])C4(C([H])([H])[H])C532)C(C([H])([H])[H])(C([H])([H])[H])C1=O

$$$$
13:0:0
     RDKit          3D

 59 66  0  0  1  0  0  0  0  0999 V2000
   -3.1888    2.7979    6.8276 C   0  0  0  0  0  0  0  0  0  0  0  0
   -2.3596    1.6497    6.7238 O   0  0  0  0  0  0  0  0  0  0  0  0
   -1.4446    1.6072    5.6939 C   0  0  0  0  0  0  0  0  0  0  0  0
   -1.5008    2.4297    4.5314 C   0  0  0  0  0  0  0  0  0  0  0  0
   -0.4599    2.4054    3.5675 C   0  0  0  0  0  0  0  0  0  0  0  0
    0.6080    1.4969    3.7053 C   0  0  0  0  0  0  0  0  0  0  0  0
    0.5283    0.6116    4.7929 C   0  0  0  0  0  0  0  0  0  0  0  0
   -0.3820    0.6920    5.8313 C   0  0  0  0  0  0  0  0  0  0  0  0
   -0.0565   -0.0701    6.9185 O   0  0  0  0  0  0  0  0  0  0  0  0
    1.2449   -0.6408    6.6728 C   0  0  1  0  0  0  0  0  0  0  0  0
    1.1490   -2.1552    6.6847 C   0  0  1  0  0  0  0  0  0  0  0  0
    0.9822   -2.7536    7.9703 O   0  0  0  0  0  0  0  0  0  0  0  0
    1.0532   -4.1761    8.0325 C   0  0  0  0  0  0  0  0  0  0  0  0
    0.1310   -2.5686    5.6170 C   0  0  0  0  0  0  0  0  0  0  0  0
    1.2430   -1.9395    4.7459 C   0  0  2  0  0  0  0  0  0  0  0  0
    1.2749   -2.3680    3.2763 C   0  0  0  0  0  0  0  0  0  0  0  0
    1.5695   -1.3266    2.2027 C   0  0  0  0  0  0  0  0  0  0  0  0
    2.9204   -0.7098    2.3098 N   0  0  1  0  0  0  0  0  0  0  0  0
    3.4506   -0.3611    0.9571 C   0  0  0  0  0  0  0  0  0  0  0  0
    4.3694   -1.4324    0.3977 C   0  0  0  0  0  0  0  0  0  0  0  0
    5.8689   -1.2098    0.3272 C   0  0  0  0  0  0  0  0  0  0  0  0
    5.0572   -1.2098   -0.9385 C   0  0  0  0  0  0  0  0  0  0  0  0
    2.9937    0.4275    3.2800 C   0  0  1  0  0  0  0  0  0  0  0  0
    1.9501    1.5345    2.9602 C   0  0  0  0  0  0  0  0  0  0  0  0
    2.9382   -0.0212    4.7695 C   0  0  2  0  0  0  0  0  0  0  0  0
    3.9500   -1.0837    5.1707 C   0  0  0  0  0  0  0  0  0  0  0  0
    3.5905   -2.2903    5.6474 C   0  0  0  0  0  0  0  0  0  0  0  0
    2.1438   -2.7838    5.6792 C   0  0  1  0  0  0  0  0  0  0  0  0
    1.5189   -0.4527    5.1528 C   0  0  1  0  0  0  0  0  0  0  0  0
   -3.8508    2.6766    7.6840 H   0  0  0  0  0  0  0  0  0  0  0  0
   -3.8200    2.9492    5.9524 H   0  0  0  0  0  0  0  0  0  0  0  0
   -2.5944    3.6967    6.9901 H   0  0  0  0  0  0  0  0  0  0  0  0
   -2.2996    3.1328    4.3755 H   0  0  0  0  0  0  0  0  0  0  0  0
   -0.4536    3.1145    2.7495 H   0  0  0  0  0  0  0  0  0  0  0  0
    2.0107   -0.2267    7.3318 H   0  0  0  0  0  0  0  0  0  0  0  0
    0.8550   -4.5241    9.0454 H   0  0  0  0  0  0  0  0  0  0  0  0
    2.0478   -4.5278    7.7644 H   0  0  0  0  0  0  0  0  0  0  0  0
    0.3260   -4.6685    7.3881 H   0  0  0  0  0  0  0  0  0  0  0  0
   -0.0531   -3.6348    5.4706 H   0  0  0  0  0  0  0  0  0  0  0  0
   -0.8075   -2.0158    5.6227 H   0  0  0  0  0  0  0  0  0  0  0  0
    1.9837   -3.1904    3.1588 H   0  0  0  0  0  0  0  0  0  0  0  0
    0.3107   -2.8107    3.0373 H   0  0  0  0  0  0  0  0  0  0  0  0
    1.5401   -1.8929    1.2776 H   0  0  0  0  0  0  0  0  0  0  0  0
    0.7613   -0.6048    2.1065 H   0  0  0  0  0  0  0  0  0  0  0  0
    2.6254   -0.2446    0.2562 H   0  0  0  0  0  0  0  0  0  0  0  0
    3.9861    0.5882    0.9536 H   0  0  0  0  0  0  0  0  0  0  0  0
    4.0231   -2.4552    0.5574 H   0  0  0  0  0  0  0  0  0  0  0  0
    6.2552   -0.2557    0.6836 H   0  0  0  0  0  0  0  0  0  0  0  0
    6.5098   -2.0722    0.5096 H   0  0  0  0  0  0  0  0  0  0  0  0
    5.1776   -2.0688   -1.5978 H   0  0  0  0  0  0  0  0  0  0  0  0
    4.9025   -0.2578   -1.4436 H   0  0  0  0  0  0  0  0  0  0  0  0
    3.9811    0.8686    3.1418 H   0  0  0  0  0  0  0  0  0  0  0  0
    1.7563    1.6036    1.8880 H   0  0  0  0  0  0  0  0  0  0  0  0
    2.3949    2.4941    3.2246 H   0  0  0  0  0  0  0  0  0  0  0  0
    3.1812    0.8527    5.3758 H   0  0  0  0  0  0  0  0  0  0  0  0
    4.9937   -0.8091    5.1200 H   0  0  0  0  0  0  0  0  0  0  0  0
    4.3466   -2.9930    5.9651 H   0  0  0  0  0  0  0  0  0  0  0  0
    2.0798   -3.8639    5.5312 H   0  0  0  0  0  0  0  0  0  0  0  0
    3.5487   -1.4159    2.6714 H   0  0  0  0  0  0  0  0  0  0  0  0
  1  2  1  0
  1 30  1  0
  1 31  1  0
  1 32  1  0
  2  3  1  0
  3  8  2  0
  3  4  1  0
  4  5  2  0
  4 33  1  0
  5  6  1  0
  5 34  1  0
  6 24  1  0
  6  7  2  0
 29  7  1  6
  7  8  1  0
  8  9  1  0
  9 10  1  0
 10 29  1  0
 10 11  1  0
 10 35  1  1
 11 28  1  0
 11 12  1  1
 11 14  1  0
 12 13  1  0
 13 36  1  0
 13 37  1  0
 13 38  1  0
 15 14  1  1
 14 39  1  0
 14 40  1  0
 15 28  1  0
 15 29  1  0
 15 16  1  0
 16 17  1  0
 16 41  1  0
 16 42  1  0
 17 18  1  0
 17 43  1  0
 17 44  1  0
 18 19  1  0
 18 23  1  0
 18 59  1  1
 19 20  1  0
 19 45  1  0
 19 46  1  0
 20 22  1  0
 20 21  1  0
 20 47  1  0
 21 22  1  0
 21 48  1  0
 21 49  1  0
 22 50  1  0
 22 51  1  0
 23 24  1  0
 23 25  1  0
 23 52  1  1
 24 53  1  0
 24 54  1  0
 25 26  1  0
 25 29  1  0
 25 55  1  1
 26 27  2  0
 26 56  1  0
 27 28  1  0
 27 57  1  0
 28 58  1  6
M  CHG  1  18   1
M  END
>  <i_m_ct_stereo_status>  (38) 
1

>  <s_m_source_file>  (38) 
/var/tmp/pbs.5076255.sched01/tmpsofmo5yl/0au1p7r3z.sdf

>  <i_m_source_file_index>  (38) 
17

>  <i_lp_mmshare_version>  (38) 
48012

>  <i_f3d_flags>  (38) 
2

>  <s_epik_input>  (38) 
W0NAXTEyM1tDQEBdNDVjNmM3W2NIXVtjSF1jKE9bQ0gzXSljNk9bQ0BASF00W0NAXShbQ0gyXTEpKE9bQ0gzXSlbQ0BASF0zW0NIXT1bQ0hdW0NASF01W0NAQEhdKFtDSDJdNylOKFtDSDJdW0NIMl0yKVtDSDJdW0NIXThbQ0gyXVtDSDJdOA==

>  <s_epik_cmdline>  (38) 
J2VwaWtfcHl0aG9uJywgJy1waHQnLCAnMi4wJywgJy1waCcsICc3LjAnLCAnLXRuJywgJzgnLCAnLW1hJywgJzIwMCcsICctaW1hZScsICc8aW5maWxlLm1hZT4nLCAnLW9tYWUnLCAnPG91dGZpbGUubWFlPic=

>  <r_lp_tautomer_probability>  (38) 
1

>  <r_epik_Ionization_Penalty>  (38) 
0.00791167

>  <r_epik_Ionization_Penalty_Charging>  (38) 
0.00791167

>  <r_epik_Ionization_Penalty_Neutral>  (38) 
4.94396e-13

>  <r_epik_State_Penalty>  (38) 
0.00593544

>  <r_epik_Charging_Adjusted_Penalty>  (38) 
0.0138471

>  <i_epik_Tot_Q>  (38) 
1

>  <i_epik_Tot_abs_Q>  (38) 
1

>  <s_lp_Force_Field>  (38) 
OPLS3e

>  <r_lp_Energy>  (38) 
92.5166

>  <b_lp_Chiralities_Consistent>  (38) 
0

>  <s_lp_Variant>  (38) 
13:0-1

>  <s_i_glide_gridfile>  (38) 
pfpi4k_grid

>  <i_i_glide_lignum>  (38) 
17

>  <i_i_glide_rotatable_bonds>  (38) 
4

>  <r_i_docking_score>  (38) 
-2.76787

>  <r_i_glide_ligand_efficiency>  (38) 
-0.0954437

>  <r_i_glide_ligand_efficiency_sa>  (38) 
-0.293233

>  <r_i_glide_ligand_efficiency_ln>  (38) 
-0.633771

>  <r_i_glide_gscore>  (38) 
-2.76787

>  <r_i_glide_lipo>  (38) 
-0.289914

>  <r_i_glide_hbond>  (38) 
0

>  <r_i_glide_metal>  (38) 
-0

>  <r_i_glide_rewards>  (38) 
-0.732882

>  <r_i_glide_evdw>  (38) 
-21.1792

>  <r_i_glide_ecoul>  (38) 
-6.18251

>  <r_i_glide_erotb>  (38) 
0.253471

>  <r_i_glide_esite>  (38) 
-0.0122042

>  <r_i_glide_emodel>  (38) 
-31.1656

>  <r_i_glide_energy>  (38) 
-27.3617

>  <r_i_glide_einternal>  (38) 
3.3615

>  <r_i_glide_intrahb_reward>  (38) 
-0

>  <i_i_glide_confnum>  (38) 
2

>  <i_i_glide_posenum>  (38) 
36

>  <r_i_glide_eff_state_penalty>  (38) 
0

>  <ligand_id>  (38) 
13

>  <original_smiles>  (38) 
COc1ccc2c3c1OC1C4(OC)CC56CCN(CC7CC7)C(C2)C(C=CC45)C316

>  <smiles>  (38) 
[H]C1=C([H])C2([H])C34c5c6c(OC([H])([H])[H])c([H])c([H])c5C([H])([H])C2([H])[N+]([H])(C([H])([H])C2([H])C([H])([H])C2([H])[H])C([H])([H])C([H])([H])C32C([H])([H])C(OC([H])([H])[H])(C4([H])O6)C12[H]

$$$$
13:0:1
     RDKit          3D

 59 66  0  0  1  0  0  0  0  0999 V2000
   -3.3150    3.4340    8.7325 C   0  0  0  0  0  0  0  0  0  0  0  0
   -2.2948    4.0511    7.9620 O   0  0  0  0  0  0  0  0  0  0  0  0
   -1.7164    3.3340    6.9374 C   0  0  0  0  0  0  0  0  0  0  0  0
   -2.1880    2.0717    6.4795 C   0  0  0  0  0  0  0  0  0  0  0  0
   -1.6242    1.4483    5.3351 C   0  0  0  0  0  0  0  0  0  0  0  0
   -0.5110    2.0268    4.6945 C   0  0  0  0  0  0  0  0  0  0  0  0
    0.0012    3.1914    5.2844 C   0  0  0  0  0  0  0  0  0  0  0  0
   -0.6103    3.9212    6.2885 C   0  0  0  0  0  0  0  0  0  0  0  0
   -0.1021    5.1798    6.4481 O   0  0  0  0  0  0  0  0  0  0  0  0
    0.8784    5.3835    5.4121 C   0  0  1  0  0  0  0  0  0  0  0  0
    2.2391    5.6435    6.0285 C   0  0  1  0  0  0  0  0  0  0  0  0
    2.4627    6.8862    6.6813 O   0  0  0  0  0  0  0  0  0  0  0  0
    2.4611    8.0204    5.8290 C   0  0  0  0  0  0  0  0  0  0  0  0
    2.6029    4.4431    6.9113 C   0  0  0  0  0  0  0  0  0  0  0  0
    2.5792    3.7879    5.5133 C   0  0  2  0  0  0  0  0  0  0  0  0
    3.3543    2.4717    5.3537 C   0  0  0  0  0  0  0  0  0  0  0  0
    2.7473    1.3515    4.5129 C   0  0  0  0  0  0  0  0  0  0  0  0
    2.5623    1.7051    3.0745 N   0  0  1  0  0  0  0  0  0  0  0  0
    2.7300    0.5019    2.2030 C   0  0  0  0  0  0  0  0  0  0  0  0
    4.1851    0.0597    2.0740 C   0  0  0  0  0  0  0  0  0  0  0  0
    4.8314   -0.1079    0.7130 C   0  0  0  0  0  0  0  0  0  0  0  0
    4.5015   -1.3219    1.5301 C   0  0  0  0  0  0  0  0  0  0  0  0
    1.2898    2.4477    2.7947 C   0  0  1  0  0  0  0  0  0  0  0  0
    0.0350    1.6790    3.3015 C   0  0  0  0  0  0  0  0  0  0  0  0
    1.3115    3.9201    3.2966 C   0  0  2  0  0  0  0  0  0  0  0  0
    2.4886    4.7546    2.8240 C   0  0  0  0  0  0  0  0  0  0  0  0
    3.3722    5.3279    3.6594 C   0  0  0  0  0  0  0  0  0  0  0  0
    3.3842    5.0675    5.1641 C   0  0  1  0  0  0  0  0  0  0  0  0
    1.1851    3.9817    4.8171 C   0  0  1  0  0  0  0  0  0  0  0  0
   -3.6498    4.1350    9.4959 H   0  0  0  0  0  0  0  0  0  0  0  0
   -2.9453    2.5431    9.2400 H   0  0  0  0  0  0  0  0  0  0  0  0
   -4.1835    3.1698    8.1291 H   0  0  0  0  0  0  0  0  0  0  0  0
   -3.0468    1.6047    6.9293 H   0  0  0  0  0  0  0  0  0  0  0  0
   -2.0832    0.5644    4.9140 H   0  0  0  0  0  0  0  0  0  0  0  0
    0.5535    6.1262    4.6810 H   0  0  0  0  0  0  0  0  0  0  0  0
    2.6169    8.9237    6.4207 H   0  0  0  0  0  0  0  0  0  0  0  0
    1.5123    8.1361    5.3054 H   0  0  0  0  0  0  0  0  0  0  0  0
    3.2661    7.9603    5.0971 H   0  0  0  0  0  0  0  0  0  0  0  0
    3.5657    4.4773    7.4306 H   0  0  0  0  0  0  0  0  0  0  0  0
    1.8190    4.0955    7.5837 H   0  0  0  0  0  0  0  0  0  0  0  0
    4.3489    2.6896    4.9612 H   0  0  0  0  0  0  0  0  0  0  0  0
    3.5423    2.0601    6.3438 H   0  0  0  0  0  0  0  0  0  0  0  0
    3.4668    0.5409    4.5830 H   0  0  0  0  0  0  0  0  0  0  0  0
    1.8581    0.9343    4.9781 H   0  0  0  0  0  0  0  0  0  0  0  0
    2.1520   -0.3297    2.6065 H   0  0  0  0  0  0  0  0  0  0  0  0
    2.3361    0.6792    1.2028 H   0  0  0  0  0  0  0  0  0  0  0  0
    4.8490    0.3845    2.8761 H   0  0  0  0  0  0  0  0  0  0  0  0
    4.2226    0.0952   -0.1657 H   0  0  0  0  0  0  0  0  0  0  0  0
    5.8838    0.1570    0.6239 H   0  0  0  0  0  0  0  0  0  0  0  0
    5.3413   -1.8588    1.9694 H   0  0  0  0  0  0  0  0  0  0  0  0
    3.6764   -1.9448    1.1905 H   0  0  0  0  0  0  0  0  0  0  0  0
    1.2089    2.5050    1.7082 H   0  0  0  0  0  0  0  0  0  0  0  0
    0.1772    0.5992    3.2500 H   0  0  0  0  0  0  0  0  0  0  0  0
   -0.7837    1.8823    2.6113 H   0  0  0  0  0  0  0  0  0  0  0  0
    0.4303    4.4106    2.8841 H   0  0  0  0  0  0  0  0  0  0  0  0
    2.5478    4.9282    1.7598 H   0  0  0  0  0  0  0  0  0  0  0  0
    4.1609    5.9485    3.2605 H   0  0  0  0  0  0  0  0  0  0  0  0
    4.3911    5.1346    5.5856 H   0  0  0  0  0  0  0  0  0  0  0  0
    3.3104    2.3364    2.8062 H   0  0  0  0  0  0  0  0  0  0  0  0
  1  2  1  0
  1 30  1  0
  1 31  1  0
  1 32  1  0
  2  3  1  0
  3  8  2  0
  3  4  1  0
  4  5  2  0
  4 33  1  0
  5  6  1  0
  5 34  1  0
  6 24  1  0
  6  7  2  0
 29  7  1  1
  7  8  1  0
  8  9  1  0
  9 10  1  0
 10 29  1  0
 10 11  1  0
 10 35  1  6
 11 28  1  0
 11 12  1  1
 11 14  1  0
 12 13  1  0
 13 36  1  0
 13 37  1  0
 13 38  1  0
 15 14  1  1
 14 39  1  0
 14 40  1  0
 15 28  1  0
 15 29  1  0
 15 16  1  0
 16 17  1  0
 16 41  1  0
 16 42  1  0
 17 18  1  0
 17 43  1  0
 17 44  1  0
 18 19  1  0
 18 23  1  0
 18 59  1  6
 19 20  1  0
 19 45  1  0
 19 46  1  0
 20 22  1  0
 20 21  1  0
 20 47  1  0
 21 22  1  0
 21 48  1  0
 21 49  1  0
 22 50  1  0
 22 51  1  0
 23 24  1  0
 23 25  1  0
 23 52  1  6
 24 53  1  0
 24 54  1  0
 25 26  1  0
 25 29  1  0
 25 55  1  6
 26 27  2  0
 26 56  1  0
 27 28  1  0
 27 57  1  0
 28 58  1  1
M  CHG  1  18   1
M  END
>  <i_m_ct_stereo_status>  (39) 
1

>  <s_m_source_file>  (39) 
/var/tmp/pbs.5076255.sched01/tmpsofmo5yl/0au1p7r3z.sdf

>  <i_m_source_file_index>  (39) 
17

>  <i_lp_mmshare_version>  (39) 
48012

>  <i_f3d_flags>  (39) 
2

>  <s_epik_input>  (39) 
W0NAXTEyM1tDQEBdNDVjNmM3W2NIXVtjSF1jKE9bQ0gzXSljNk9bQ0BASF00W0NAXShbQ0gyXTEpKE9bQ0gzXSlbQ0BASF0zW0NIXT1bQ0hdW0NASF01W0NAQEhdKFtDSDJdNylOKFtDSDJdW0NIMl0yKVtDSDJdW0NIXThbQ0gyXVtDSDJdOA==

>  <s_epik_cmdline>  (39) 
J2VwaWtfcHl0aG9uJywgJy1waHQnLCAnMi4wJywgJy1waCcsICc3LjAnLCAnLXRuJywgJzgnLCAnLW1hJywgJzIwMCcsICctaW1hZScsICc8aW5maWxlLm1hZT4nLCAnLW9tYWUnLCAnPG91dGZpbGUubWFlPic=

>  <r_lp_tautomer_probability>  (39) 
1

>  <r_epik_Ionization_Penalty>  (39) 
0.00791167

>  <r_epik_Ionization_Penalty_Charging>  (39) 
0.00791167

>  <r_epik_Ionization_Penalty_Neutral>  (39) 
4.94396e-13

>  <r_epik_State_Penalty>  (39) 
0.00593544

>  <r_epik_Charging_Adjusted_Penalty>  (39) 
0.0138471

>  <i_epik_Tot_Q>  (39) 
1

>  <i_epik_Tot_abs_Q>  (39) 
1

>  <s_lp_Force_Field>  (39) 
OPLS3e

>  <r_lp_Energy>  (39) 
92.5166

>  <b_lp_Chiralities_Consistent>  (39) 
0

>  <s_lp_Variant>  (39) 
13:0-1

>  <s_i_glide_gridfile>  (39) 
pfpi4k_grid

>  <i_i_glide_lignum>  (39) 
17

>  <i_i_glide_rotatable_bonds>  (39) 
4

>  <r_i_docking_score>  (39) 
-2.76622

>  <r_i_glide_ligand_efficiency>  (39) 
-0.0953871

>  <r_i_glide_ligand_efficiency_sa>  (39) 
-0.293059

>  <r_i_glide_ligand_efficiency_ln>  (39) 
-0.633395

>  <r_i_glide_gscore>  (39) 
-2.76622

>  <r_i_glide_lipo>  (39) 
-0.362572

>  <r_i_glide_hbond>  (39) 
0

>  <r_i_glide_metal>  (39) 
-0

>  <r_i_glide_rewards>  (39) 
-0.732882

>  <r_i_glide_evdw>  (39) 
-23.0697

>  <r_i_glide_ecoul>  (39) 
-5.07777

>  <r_i_glide_erotb>  (39) 
0.253471

>  <r_i_glide_esite>  (39) 
-0.00909158

>  <r_i_glide_emodel>  (39) 
-33.0596

>  <r_i_glide_energy>  (39) 
-28.1475

>  <r_i_glide_einternal>  (39) 
1.48194

>  <r_i_glide_intrahb_reward>  (39) 
-0

>  <i_i_glide_confnum>  (39) 
2

>  <i_i_glide_posenum>  (39) 
25

>  <r_i_glide_eff_state_penalty>  (39) 
0

>  <ligand_id>  (39) 
13

>  <original_smiles>  (39) 
COc1ccc2c3c1OC1C4(OC)CC56CCN(CC7CC7)C(C2)C(C=CC45)C316

>  <smiles>  (39) 
[H]C1=C([H])C2([H])C34c5c6c(OC([H])([H])[H])c([H])c([H])c5C([H])([H])C2([H])[N+]([H])(C([H])([H])C2([H])C([H])([H])C2([H])[H])C([H])([H])C([H])([H])C32C([H])([H])C(OC([H])([H])[H])(C4([H])O6)C12[H]

$$$$
13:0:2
     RDKit          3D

 59 66  0  0  1  0  0  0  0  0999 V2000
   -3.3810    2.8834    6.9626 C   0  0  0  0  0  0  0  0  0  0  0  0
   -2.5003    1.7753    6.8952 O   0  0  0  0  0  0  0  0  0  0  0  0
   -1.5925    1.7315    5.8587 C   0  0  0  0  0  0  0  0  0  0  0  0
   -1.6743    2.5341    4.6838 C   0  0  0  0  0  0  0  0  0  0  0  0
   -0.6462    2.5100    3.7066 C   0  0  0  0  0  0  0  0  0  0  0  0
    0.4366    1.6187    3.8464 C   0  0  0  0  0  0  0  0  0  0  0  0
    0.3861    0.7528    4.9499 C   0  0  0  0  0  0  0  0  0  0  0  0
   -0.5106    0.8390    5.9995 C   0  0  0  0  0  0  0  0  0  0  0  0
   -0.1541    0.1075    7.0981 O   0  0  0  0  0  0  0  0  0  0  0  0
    1.1560   -0.4351    6.8421 C   0  0  1  0  0  0  0  0  0  0  0  0
    1.0927   -1.9463    6.8934 C   0  0  1  0  0  0  0  0  0  0  0  0
    0.9085   -2.5695    8.1579 O   0  0  0  0  0  0  0  0  0  0  0  0
    2.0161   -2.4631    9.0402 C   0  0  0  0  0  0  0  0  0  0  0  0
    0.0638   -2.4160    5.8570 C   0  0  0  0  0  0  0  0  0  0  0  0
    1.1439   -1.7914    4.9459 C   0  0  2  0  0  0  0  0  0  0  0  0
    1.1568   -2.2463    3.4809 C   0  0  0  0  0  0  0  0  0  0  0  0
    1.4138   -1.2166    2.3804 C   0  0  0  0  0  0  0  0  0  0  0  0
    2.7572   -0.5797    2.4538 N   0  0  1  0  0  0  0  0  0  0  0  0
    3.2600   -0.2441    1.0880 C   0  0  0  0  0  0  0  0  0  0  0  0
    3.8405   -1.4494    0.3602 C   0  0  0  0  0  0  0  0  0  0  0  0
    5.3388   -1.6336    0.2259 C   0  0  0  0  0  0  0  0  0  0  0  0
    4.5205   -1.2660   -0.9836 C   0  0  0  0  0  0  0  0  0  0  0  0
    2.8301    0.5776    3.4022 C   0  0  1  0  0  0  0  0  0  0  0  0
    1.7664    1.6658    3.0826 C   0  0  0  0  0  0  0  0  0  0  0  0
    2.8063    0.1549    4.9015 C   0  0  2  0  0  0  0  0  0  0  0  0
    3.8403   -0.8860    5.3053 C   0  0  0  0  0  0  0  0  0  0  0  0
    3.5088   -2.0898    5.8103 C   0  0  0  0  0  0  0  0  0  0  0  0
    2.0698   -2.6010    5.8880 C   0  0  1  0  0  0  0  0  0  0  0  0
    1.4006   -0.2880    5.3147 C   0  0  1  0  0  0  0  0  0  0  0  0
   -4.0204    2.7719    7.8382 H   0  0  0  0  0  0  0  0  0  0  0  0
   -4.0326    2.9424    6.0906 H   0  0  0  0  0  0  0  0  0  0  0  0
   -2.8325    3.8190    7.0703 H   0  0  0  0  0  0  0  0  0  0  0  0
   -2.4862    3.2234    4.5299 H   0  0  0  0  0  0  0  0  0  0  0  0
   -0.6582    3.2055    2.8778 H   0  0  0  0  0  0  0  0  0  0  0  0
    1.9246    0.0156    7.4724 H   0  0  0  0  0  0  0  0  0  0  0  0
    1.7853   -2.9546    9.9863 H   0  0  0  0  0  0  0  0  0  0  0  0
    2.2564   -1.4245    9.2662 H   0  0  0  0  0  0  0  0  0  0  0  0
    2.8996   -2.9478    8.6250 H   0  0  0  0  0  0  0  0  0  0  0  0
   -0.1028   -3.4942    5.7703 H   0  0  0  0  0  0  0  0  0  0  0  0
   -0.8867   -1.8837    5.8573 H   0  0  0  0  0  0  0  0  0  0  0  0
    1.8778   -3.0576    3.3641 H   0  0  0  0  0  0  0  0  0  0  0  0
    0.2000   -2.7152    3.2681 H   0  0  0  0  0  0  0  0  0  0  0  0
    1.3598   -1.7846    1.4554 H   0  0  0  0  0  0  0  0  0  0  0  0
    0.5976   -0.5039    2.2900 H   0  0  0  0  0  0  0  0  0  0  0  0
    2.4447    0.1541    0.4851 H   0  0  0  0  0  0  0  0  0  0  0  0
    4.0263    0.5309    1.1205 H   0  0  0  0  0  0  0  0  0  0  0  0
    3.2448   -2.3596    0.4286 H   0  0  0  0  0  0  0  0  0  0  0  0
    5.9827   -0.8700    0.6590 H   0  0  0  0  0  0  0  0  0  0  0  0
    5.7175   -2.6535    0.2807 H   0  0  0  0  0  0  0  0  0  0  0  0
    4.3753   -2.0434   -1.7325 H   0  0  0  0  0  0  0  0  0  0  0  0
    4.6155   -0.2559   -1.3769 H   0  0  0  0  0  0  0  0  0  0  0  0
    3.8082    1.0350    3.2443 H   0  0  0  0  0  0  0  0  0  0  0  0
    1.5520    1.7168    2.0139 H   0  0  0  0  0  0  0  0  0  0  0  0
    2.1987    2.6378    3.3217 H   0  0  0  0  0  0  0  0  0  0  0  0
    3.0452    1.0423    5.4897 H   0  0  0  0  0  0  0  0  0  0  0  0
    4.8789   -0.5980    5.2318 H   0  0  0  0  0  0  0  0  0  0  0  0
    4.2831   -2.7743    6.1230 H   0  0  0  0  0  0  0  0  0  0  0  0
    2.0141   -3.6900    5.8015 H   0  0  0  0  0  0  0  0  0  0  0  0
    3.4047   -1.2668    2.8152 H   0  0  0  0  0  0  0  0  0  0  0  0
  1  2  1  0
  1 30  1  0
  1 31  1  0
  1 32  1  0
  2  3  1  0
  3  8  2  0
  3  4  1  0
  4  5  2  0
  4 33  1  0
  5  6  1  0
  5 34  1  0
  6 24  1  0
  6  7  2  0
 29  7  1  6
  7  8  1  0
  8  9  1  0
  9 10  1  0
 10 29  1  0
 10 11  1  0
 10 35  1  1
 11 28  1  0
 11 12  1  1
 11 14  1  0
 12 13  1  0
 13 36  1  0
 13 37  1  0
 13 38  1  0
 15 14  1  1
 14 39  1  0
 14 40  1  0
 15 28  1  0
 15 29  1  0
 15 16  1  0
 16 17  1  0
 16 41  1  0
 16 42  1  0
 17 18  1  0
 17 43  1  0
 17 44  1  0
 18 19  1  0
 18 23  1  0
 18 59  1  1
 19 20  1  0
 19 45  1  0
 19 46  1  0
 20 22  1  0
 20 21  1  0
 20 47  1  0
 21 22  1  0
 21 48  1  0
 21 49  1  0
 22 50  1  0
 22 51  1  0
 23 24  1  0
 23 25  1  0
 23 52  1  6
 24 53  1  0
 24 54  1  0
 25 26  1  0
 25 29  1  0
 25 55  1  1
 26 27  2  0
 26 56  1  0
 27 28  1  0
 27 57  1  0
 28 58  1  6
M  CHG  1  18   1
M  END
>  <i_m_ct_stereo_status>  (40) 
1

>  <s_m_source_file>  (40) 
/var/tmp/pbs.5076255.sched01/tmpsofmo5yl/0au1p7r3z.sdf

>  <i_m_source_file_index>  (40) 
17

>  <i_lp_mmshare_version>  (40) 
48012

>  <i_f3d_flags>  (40) 
2

>  <s_epik_input>  (40) 
W0NAXTEyM1tDQEBdNDVjNmM3W2NIXVtjSF1jKE9bQ0gzXSljNk9bQ0BASF00W0NAXShbQ0gyXTEpKE9bQ0gzXSlbQ0BASF0zW0NIXT1bQ0hdW0NASF01W0NAQEhdKFtDSDJdNylOKFtDSDJdW0NIMl0yKVtDSDJdW0NIXThbQ0gyXVtDSDJdOA==

>  <s_epik_cmdline>  (40) 
J2VwaWtfcHl0aG9uJywgJy1waHQnLCAnMi4wJywgJy1waCcsICc3LjAnLCAnLXRuJywgJzgnLCAnLW1hJywgJzIwMCcsICctaW1hZScsICc8aW5maWxlLm1hZT4nLCAnLW9tYWUnLCAnPG91dGZpbGUubWFlPic=

>  <r_lp_tautomer_probability>  (40) 
1

>  <r_epik_Ionization_Penalty>  (40) 
0.00791167

>  <r_epik_Ionization_Penalty_Charging>  (40) 
0.00791167

>  <r_epik_Ionization_Penalty_Neutral>  (40) 
4.94396e-13

>  <r_epik_State_Penalty>  (40) 
0.00593544

>  <r_epik_Charging_Adjusted_Penalty>  (40) 
0.0138471

>  <i_epik_Tot_Q>  (40) 
1

>  <i_epik_Tot_abs_Q>  (40) 
1

>  <s_lp_Force_Field>  (40) 
OPLS3e

>  <r_lp_Energy>  (40) 
92.5166

>  <b_lp_Chiralities_Consistent>  (40) 
0

>  <s_lp_Variant>  (40) 
13:0-1

>  <s_i_glide_gridfile>  (40) 
pfpi4k_grid

>  <i_i_glide_lignum>  (40) 
17

>  <i_i_glide_rotatable_bonds>  (40) 
4

>  <r_i_docking_score>  (40) 
-2.6814

>  <r_i_glide_ligand_efficiency>  (40) 
-0.092462

>  <r_i_glide_ligand_efficiency_sa>  (40) 
-0.284073

>  <r_i_glide_ligand_efficiency_ln>  (40) 
-0.613972

>  <r_i_glide_gscore>  (40) 
-2.6814

>  <r_i_glide_lipo>  (40) 
-0.210433

>  <r_i_glide_hbond>  (40) 
0

>  <r_i_glide_metal>  (40) 
-0

>  <r_i_glide_rewards>  (40) 
-0.732882

>  <r_i_glide_evdw>  (40) 
-21.0611

>  <r_i_glide_ecoul>  (40) 
-6.17737

>  <r_i_glide_erotb>  (40) 
0.253471

>  <r_i_glide_esite>  (40) 
-0.0118928

>  <r_i_glide_emodel>  (40) 
-32.1318

>  <r_i_glide_energy>  (40) 
-27.2385

>  <r_i_glide_einternal>  (40) 
1.03728

>  <r_i_glide_intrahb_reward>  (40) 
-0

>  <i_i_glide_confnum>  (40) 
2

>  <i_i_glide_posenum>  (40) 
30

>  <r_i_glide_eff_state_penalty>  (40) 
0

>  <ligand_id>  (40) 
13

>  <original_smiles>  (40) 
COc1ccc2c3c1OC1C4(OC)CC56CCN(CC7CC7)C(C2)C(C=CC45)C316

>  <smiles>  (40) 
[H]C1=C([H])C2([H])C34c5c6c(OC([H])([H])[H])c([H])c([H])c5C([H])([H])C2([H])[N+]([H])(C([H])([H])C2([H])C([H])([H])C2([H])[H])C([H])([H])C([H])([H])C32C([H])([H])C(OC([H])([H])[H])(C4([H])O6)C12[H]

$$$$
14:0:0
     RDKit          3D

 25 27  0  0  1  0  0  0  0  0999 V2000
    0.6699    0.5308    1.7655 C   0  0  0  0  0  0  0  0  0  0  0  0
    1.4967   -0.4230    3.0792 S   0  0  0  0  0  0  0  0  0  0  0  0
    0.1461   -0.5778    4.2131 C   0  0  0  0  0  0  0  0  0  0  0  0
   -0.4438   -1.7548    4.4884 N   0  0  0  0  0  0  0  0  0  0  0  0
   -1.4496   -1.4902    5.4006 N   0  0  0  0  0  0  0  0  0  0  0  0
   -1.3872   -0.1723    5.6382 C   0  0  0  0  0  0  0  0  0  0  0  0
   -2.1786    0.5334    6.4836 N   0  0  0  0  0  0  0  0  0  0  0  0
   -2.0627    1.8843    6.6606 C   0  0  0  0  0  0  0  0  0  0  0  0
   -2.7696    2.5625    7.3988 O   0  0  0  0  0  0  0  0  0  0  0  0
   -0.9666    2.5511    5.8742 C   0  0  0  0  0  0  0  0  0  0  0  0
   -0.7695    3.9485    5.9791 C   0  0  0  0  0  0  0  0  0  0  0  0
    0.2563    4.5517    5.2294 C   0  0  0  0  0  0  0  0  0  0  0  0
    0.5042    6.0435    5.3216 C   0  0  0  0  0  0  0  0  0  0  0  0
    1.0576    3.7234    4.4220 C   0  0  0  0  0  0  0  0  0  0  0  0
    0.9054    2.3834    4.3608 N   0  0  0  0  0  0  0  0  0  0  0  0
   -0.1134    1.8032    5.0332 C   0  0  0  0  0  0  0  0  0  0  0  0
   -0.4075    0.4105    4.9381 N   0  0  0  0  0  0  0  0  0  0  0  0
    1.3857    0.7542    0.9733 H   0  0  0  0  0  0  0  0  0  0  0  0
    0.2701    1.4766    2.1257 H   0  0  0  0  0  0  0  0  0  0  0  0
   -0.1695   -0.0172    1.3431 H   0  0  0  0  0  0  0  0  0  0  0  0
   -1.3828    4.5515    6.6460 H   0  0  0  0  0  0  0  0  0  0  0  0
    1.3337    6.3504    4.6850 H   0  0  0  0  0  0  0  0  0  0  0  0
    0.7432    6.3112    6.3520 H   0  0  0  0  0  0  0  0  0  0  0  0
   -0.3820    6.5961    5.0130 H   0  0  0  0  0  0  0  0  0  0  0  0
    1.8344    4.1447    3.8012 H   0  0  0  0  0  0  0  0  0  0  0  0
  1  2  1  0
  1 18  1  0
  1 19  1  0
  1 20  1  0
  2  3  1  0
  3 17  1  0
  3  4  2  0
  4  5  1  0
  5  6  2  0
  6 17  1  0
  6  7  1  0
  7  8  1  0
  8  9  2  0
  8 10  1  0
 10 16  2  0
 10 11  1  0
 11 12  2  0
 11 21  1  0
 12 13  1  0
 12 14  1  0
 13 22  1  0
 13 23  1  0
 13 24  1  0
 14 15  2  0
 14 25  1  0
 15 16  1  0
 16 17  1  0
M  CHG  1   7  -1
M  END
>  <i_m_ct_stereo_status>  (41) 
1

>  <s_m_source_file>  (41) 
/var/tmp/pbs.5076255.sched01/tmpsofmo5yl/0au1p7r3z.sdf

>  <i_m_source_file_index>  (41) 
18

>  <i_lp_mmshare_version>  (41) 
48012

>  <i_f3d_flags>  (41) 
0

>  <s_epik_input>  (41) 
W0NIM11TYyhuW25IXTEpbihjMTIpYzNjKGMobjIpPU8pW2NIXWMoW0NIM10pW2NIXW4z

>  <s_epik_cmdline>  (41) 
J2VwaWtfcHl0aG9uJywgJy1waHQnLCAnMi4wJywgJy1waCcsICc3LjAnLCAnLXRuJywgJzgnLCAnLW1hJywgJzIwMCcsICctaW1hZScsICc8aW5maWxlLm1hZT4nLCAnLW9tYWUnLCAnPG91dGZpbGUubWFlPic=

>  <r_lp_tautomer_probability>  (41) 
1

>  <r_epik_Ionization_Penalty>  (41) 
3.5251e-08

>  <r_epik_Ionization_Penalty_Charging>  (41) 
1.22351e-10

>  <r_epik_Ionization_Penalty_Neutral>  (41) 
3.51286e-08

>  <r_epik_State_Penalty>  (41) 
-0

>  <r_epik_Charging_Adjusted_Penalty>  (41) 
1.22351e-10

>  <i_epik_Tot_Q>  (41) 
-1

>  <i_epik_Tot_abs_Q>  (41) 
1

>  <s_lp_Force_Field>  (41) 
OPLS3e

>  <r_lp_Energy>  (41) 
27.6109

>  <b_lp_Chiralities_Consistent>  (41) 
1

>  <s_lp_Variant>  (41) 
14:0-1

>  <s_i_glide_gridfile>  (41) 
pfpi4k_grid

>  <i_i_glide_lignum>  (41) 
18

>  <i_i_glide_rotatable_bonds>  (41) 
1

>  <r_i_docking_score>  (41) 
-3.4453

>  <r_i_glide_ligand_efficiency>  (41) 
-0.202665

>  <r_i_glide_ligand_efficiency_sa>  (41) 
-0.521108

>  <r_i_glide_ligand_efficiency_ln>  (41) 
-0.898801

>  <r_i_glide_gscore>  (41) 
-3.4453

>  <r_i_glide_lipo>  (41) 
0

>  <r_i_glide_hbond>  (41) 
-0.2

>  <r_i_glide_metal>  (41) 
-0

>  <r_i_glide_rewards>  (41) 
-1.72998

>  <r_i_glide_evdw>  (41) 
-17.4824

>  <r_i_glide_ecoul>  (41) 
-3.2324

>  <r_i_glide_erotb>  (41) 
0

>  <r_i_glide_esite>  (41) 
-0.156335

>  <r_i_glide_emodel>  (41) 
-28.398

>  <r_i_glide_energy>  (41) 
-20.7148

>  <r_i_glide_einternal>  (41) 
0.720685

>  <r_i_glide_intrahb_reward>  (41) 
-0

>  <i_i_glide_confnum>  (41) 
1

>  <i_i_glide_posenum>  (41) 
5

>  <r_i_glide_eff_state_penalty>  (41) 
0

>  <ligand_id>  (41) 
14

>  <original_smiles>  (41) 
CSc1n[nH]c2nc(=O)c3cc(C)cnc3n12

>  <smiles>  (41) 
[H]c1nc2c(c([H])c1C([H])([H])[H])c(=O)[n-]c1nnc(SC([H])([H])[H])n12

$$$$
14:0:1
     RDKit          3D

 25 27  0  0  1  0  0  0  0  0999 V2000
    0.6801    1.4271    1.5822 C   0  0  0  0  0  0  0  0  0  0  0  0
    0.2328    0.5284    3.0940 S   0  0  0  0  0  0  0  0  0  0  0  0
   -0.9918    1.6560    3.6922 C   0  0  0  0  0  0  0  0  0  0  0  0
   -1.7343    2.4237    2.8817 N   0  0  0  0  0  0  0  0  0  0  0  0
   -2.5342    3.2095    3.6923 N   0  0  0  0  0  0  0  0  0  0  0  0
   -2.2367    2.8523    4.9410 C   0  0  0  0  0  0  0  0  0  0  0  0
   -2.7827    3.3484    6.0693 N   0  0  0  0  0  0  0  0  0  0  0  0
   -2.4610    2.9355    7.3185 C   0  0  0  0  0  0  0  0  0  0  0  0
   -2.9625    3.3468    8.3582 O   0  0  0  0  0  0  0  0  0  0  0  0
   -1.4073    1.8635    7.3902 C   0  0  0  0  0  0  0  0  0  0  0  0
   -0.9806    1.3790    8.6434 C   0  0  0  0  0  0  0  0  0  0  0  0
    0.0045    0.3758    8.6888 C   0  0  0  0  0  0  0  0  0  0  0  0
    0.4782   -0.1636   10.0237 C   0  0  0  0  0  0  0  0  0  0  0  0
    0.5311   -0.0883    7.4676 C   0  0  0  0  0  0  0  0  0  0  0  0
    0.1181    0.3619    6.2647 N   0  0  0  0  0  0  0  0  0  0  0  0
   -0.8283    1.3352    6.2081 C   0  0  0  0  0  0  0  0  0  0  0  0
   -1.3070    1.8854    4.9856 N   0  0  0  0  0  0  0  0  0  0  0  0
    1.4687    0.9167    1.0342 H   0  0  0  0  0  0  0  0  0  0  0  0
    1.0317    2.4213    1.8451 H   0  0  0  0  0  0  0  0  0  0  0  0
   -0.1649    1.5490    0.9087 H   0  0  0  0  0  0  0  0  0  0  0  0
   -1.4035    1.7574    9.5650 H   0  0  0  0  0  0  0  0  0  0  0  0
    1.2365   -0.9347    9.8973 H   0  0  0  0  0  0  0  0  0  0  0  0
   -0.3574   -0.5909   10.5802 H   0  0  0  0  0  0  0  0  0  0  0  0
    0.9066    0.6421   10.6206 H   0  0  0  0  0  0  0  0  0  0  0  0
    1.2954   -0.8525    7.4527 H   0  0  0  0  0  0  0  0  0  0  0  0
  1  2  1  0
  1 18  1  0
  1 19  1  0
  1 20  1  0
  2  3  1  0
  3 17  1  0
  3  4  2  0
  4  5  1  0
  5  6  2  0
  6 17  1  0
  6  7  1  0
  7  8  1  0
  8  9  2  0
  8 10  1  0
 10 16  2  0
 10 11  1  0
 11 12  2  0
 11 21  1  0
 12 13  1  0
 12 14  1  0
 13 22  1  0
 13 23  1  0
 13 24  1  0
 14 15  2  0
 14 25  1  0
 15 16  1  0
 16 17  1  0
M  CHG  1   7  -1
M  END
>  <i_m_ct_stereo_status>  (42) 
1

>  <s_m_source_file>  (42) 
/var/tmp/pbs.5076255.sched01/tmpsofmo5yl/0au1p7r3z.sdf

>  <i_m_source_file_index>  (42) 
18

>  <i_lp_mmshare_version>  (42) 
48012

>  <i_f3d_flags>  (42) 
0

>  <s_epik_input>  (42) 
W0NIM11TYyhuW25IXTEpbihjMTIpYzNjKGMobjIpPU8pW2NIXWMoW0NIM10pW2NIXW4z

>  <s_epik_cmdline>  (42) 
J2VwaWtfcHl0aG9uJywgJy1waHQnLCAnMi4wJywgJy1waCcsICc3LjAnLCAnLXRuJywgJzgnLCAnLW1hJywgJzIwMCcsICctaW1hZScsICc8aW5maWxlLm1hZT4nLCAnLW9tYWUnLCAnPG91dGZpbGUubWFlPic=

>  <r_lp_tautomer_probability>  (42) 
1

>  <r_epik_Ionization_Penalty>  (42) 
3.5251e-08

>  <r_epik_Ionization_Penalty_Charging>  (42) 
1.22351e-10

>  <r_epik_Ionization_Penalty_Neutral>  (42) 
3.51286e-08

>  <r_epik_State_Penalty>  (42) 
-0

>  <r_epik_Charging_Adjusted_Penalty>  (42) 
1.22351e-10

>  <i_epik_Tot_Q>  (42) 
-1

>  <i_epik_Tot_abs_Q>  (42) 
1

>  <s_lp_Force_Field>  (42) 
OPLS3e

>  <r_lp_Energy>  (42) 
27.6109

>  <b_lp_Chiralities_Consistent>  (42) 
1

>  <s_lp_Variant>  (42) 
14:0-1

>  <s_i_glide_gridfile>  (42) 
pfpi4k_grid

>  <i_i_glide_lignum>  (42) 
18

>  <i_i_glide_rotatable_bonds>  (42) 
1

>  <r_i_docking_score>  (42) 
-3.11109

>  <r_i_glide_ligand_efficiency>  (42) 
-0.183005

>  <r_i_glide_ligand_efficiency_sa>  (42) 
-0.470558

>  <r_i_glide_ligand_efficiency_ln>  (42) 
-0.811613

>  <r_i_glide_gscore>  (42) 
-3.11109

>  <r_i_glide_lipo>  (42) 
-0.125649

>  <r_i_glide_hbond>  (42) 
0

>  <r_i_glide_metal>  (42) 
-0

>  <r_i_glide_rewards>  (42) 
-1.72998

>  <r_i_glide_evdw>  (42) 
-20.4718

>  <r_i_glide_ecoul>  (42) 
-0.454881

>  <r_i_glide_erotb>  (42) 
0

>  <r_i_glide_esite>  (42) 
-0.163635

>  <r_i_glide_emodel>  (42) 
-28.2396

>  <r_i_glide_energy>  (42) 
-20.9267

>  <r_i_glide_einternal>  (42) 
0.000759566

>  <r_i_glide_intrahb_reward>  (42) 
-0

>  <i_i_glide_confnum>  (42) 
2

>  <i_i_glide_posenum>  (42) 
10

>  <r_i_glide_eff_state_penalty>  (42) 
0

>  <ligand_id>  (42) 
14

>  <original_smiles>  (42) 
CSc1n[nH]c2nc(=O)c3cc(C)cnc3n12

>  <smiles>  (42) 
[H]c1nc2c(c([H])c1C([H])([H])[H])c(=O)[n-]c1nnc(SC([H])([H])[H])n12

$$$$
14:0:2
     RDKit          3D

 25 27  0  0  1  0  0  0  0  0999 V2000
    2.7736    4.7958    2.5958 C   0  0  0  0  0  0  0  0  0  0  0  0
    1.6913    4.5853    4.0429 S   0  0  0  0  0  0  0  0  0  0  0  0
    1.2067    2.9021    3.7489 C   0  0  0  0  0  0  0  0  0  0  0  0
    1.7680    2.1336    2.7974 N   0  0  0  0  0  0  0  0  0  0  0  0
    1.1460    0.9037    2.8546 N   0  0  0  0  0  0  0  0  0  0  0  0
    0.2613    0.9933    3.8456 C   0  0  0  0  0  0  0  0  0  0  0  0
   -0.5583    0.0099    4.2766 N   0  0  0  0  0  0  0  0  0  0  0  0
   -1.4310    0.1614    5.3004 C   0  0  0  0  0  0  0  0  0  0  0  0
   -2.1849   -0.7113    5.7203 O   0  0  0  0  0  0  0  0  0  0  0  0
   -1.4355    1.5097    5.9727 C   0  0  0  0  0  0  0  0  0  0  0  0
   -2.3021    1.7586    7.0564 C   0  0  0  0  0  0  0  0  0  0  0  0
   -2.2899    3.0174    7.6812 C   0  0  0  0  0  0  0  0  0  0  0  0
   -3.2330    3.3129    8.8394 C   0  0  0  0  0  0  0  0  0  0  0  0
   -1.3880    3.9798    7.1864 C   0  0  0  0  0  0  0  0  0  0  0  0
   -0.5645    3.7625    6.1364 N   0  0  0  0  0  0  0  0  0  0  0  0
   -0.5730    2.5445    5.5269 C   0  0  0  0  0  0  0  0  0  0  0  0
    0.2683    2.2077    4.4281 N   0  0  0  0  0  0  0  0  0  0  0  0
    3.1783    5.8050    2.5111 H   0  0  0  0  0  0  0  0  0  0  0  0
    2.2190    4.5755    1.6872 H   0  0  0  0  0  0  0  0  0  0  0  0
    3.6127    4.1117    2.6454 H   0  0  0  0  0  0  0  0  0  0  0  0
   -2.9858    0.9988    7.4073 H   0  0  0  0  0  0  0  0  0  0  0  0
   -3.0979    4.3244    9.2140 H   0  0  0  0  0  0  0  0  0  0  0  0
   -3.0453    2.6205    9.6597 H   0  0  0  0  0  0  0  0  0  0  0  0
   -4.2716    3.2020    8.5263 H   0  0  0  0  0  0  0  0  0  0  0  0
   -1.3462    4.9694    7.6252 H   0  0  0  0  0  0  0  0  0  0  0  0
  1  2  1  0
  1 18  1  0
  1 19  1  0
  1 20  1  0
  2  3  1  0
  3 17  1  0
  3  4  2  0
  4  5  1  0
  5  6  2  0
  6 17  1  0
  6  7  1  0
  7  8  1  0
  8  9  2  0
  8 10  1  0
 10 16  2  0
 10 11  1  0
 11 12  2  0
 11 21  1  0
 12 13  1  0
 12 14  1  0
 13 22  1  0
 13 23  1  0
 13 24  1  0
 14 15  2  0
 14 25  1  0
 15 16  1  0
 16 17  1  0
M  CHG  1   7  -1
M  END
>  <i_m_ct_stereo_status>  (43) 
1

>  <s_m_source_file>  (43) 
/var/tmp/pbs.5076255.sched01/tmpsofmo5yl/0au1p7r3z.sdf

>  <i_m_source_file_index>  (43) 
18

>  <i_lp_mmshare_version>  (43) 
48012

>  <i_f3d_flags>  (43) 
0

>  <s_epik_input>  (43) 
W0NIM11TYyhuW25IXTEpbihjMTIpYzNjKGMobjIpPU8pW2NIXWMoW0NIM10pW2NIXW4z

>  <s_epik_cmdline>  (43) 
J2VwaWtfcHl0aG9uJywgJy1waHQnLCAnMi4wJywgJy1waCcsICc3LjAnLCAnLXRuJywgJzgnLCAnLW1hJywgJzIwMCcsICctaW1hZScsICc8aW5maWxlLm1hZT4nLCAnLW9tYWUnLCAnPG91dGZpbGUubWFlPic=

>  <r_lp_tautomer_probability>  (43) 
1

>  <r_epik_Ionization_Penalty>  (43) 
3.5251e-08

>  <r_epik_Ionization_Penalty_Charging>  (43) 
1.22351e-10

>  <r_epik_Ionization_Penalty_Neutral>  (43) 
3.51286e-08

>  <r_epik_State_Penalty>  (43) 
-0

>  <r_epik_Charging_Adjusted_Penalty>  (43) 
1.22351e-10

>  <i_epik_Tot_Q>  (43) 
-1

>  <i_epik_Tot_abs_Q>  (43) 
1

>  <s_lp_Force_Field>  (43) 
OPLS3e

>  <r_lp_Energy>  (43) 
27.6109

>  <b_lp_Chiralities_Consistent>  (43) 
1

>  <s_lp_Variant>  (43) 
14:0-1

>  <s_i_glide_gridfile>  (43) 
pfpi4k_grid

>  <i_i_glide_lignum>  (43) 
18

>  <i_i_glide_rotatable_bonds>  (43) 
1

>  <r_i_docking_score>  (43) 
-3.08309

>  <r_i_glide_ligand_efficiency>  (43) 
-0.181358

>  <r_i_glide_ligand_efficiency_sa>  (43) 
-0.466323

>  <r_i_glide_ligand_efficiency_ln>  (43) 
-0.804309

>  <r_i_glide_gscore>  (43) 
-3.08309

>  <r_i_glide_lipo>  (43) 
-0.114432

>  <r_i_glide_hbond>  (43) 
-0.080402

>  <r_i_glide_metal>  (43) 
-0

>  <r_i_glide_rewards>  (43) 
-1.72998

>  <r_i_glide_evdw>  (43) 
-21.3238

>  <r_i_glide_ecoul>  (43) 
0.313492

>  <r_i_glide_erotb>  (43) 
0

>  <r_i_glide_esite>  (43) 
-0.139109

>  <r_i_glide_emodel>  (43) 
-28.0701

>  <r_i_glide_energy>  (43) 
-21.0103

>  <r_i_glide_einternal>  (43) 
0.169787

>  <r_i_glide_intrahb_reward>  (43) 
-0

>  <i_i_glide_confnum>  (43) 
2

>  <i_i_glide_posenum>  (43) 
3

>  <r_i_glide_eff_state_penalty>  (43) 
0

>  <ligand_id>  (43) 
14

>  <original_smiles>  (43) 
CSc1n[nH]c2nc(=O)c3cc(C)cnc3n12

>  <smiles>  (43) 
[H]c1nc2c(c([H])c1C([H])([H])[H])c(=O)[n-]c1nnc(SC([H])([H])[H])n12

$$$$
16:0:0
     RDKit          3D

 23 25  0  0  1  0  0  0  0  0999 V2000
    3.1044   -1.8142   -3.7175 C   0  0  0  0  0  0  0  0  0  0  0  0
    3.5133   -3.1535   -3.5979 C   0  0  0  0  0  0  0  0  0  0  0  0
    4.6554   -3.4460   -2.8335 C   0  0  0  0  0  0  0  0  0  0  0  0
    5.3166   -2.3804   -2.2007 C   0  0  0  0  0  0  0  0  0  0  0  0
    6.7635   -2.6554   -1.2345 S   0  0  0  0  0  0  0  0  0  0  0  0
    6.0718   -2.6133    0.3893 C   0  0  0  0  0  0  0  0  0  0  0  0
    5.8349   -1.3665    1.0080 C   0  0  0  0  0  0  0  0  0  0  0  0
    5.2908   -1.3051    2.3105 C   0  0  0  0  0  0  0  0  0  0  0  0
    4.9850   -2.4971    3.0025 C   0  0  0  0  0  0  0  0  0  0  0  0
    5.2265   -3.7344    2.3827 C   0  0  0  0  0  0  0  0  0  0  0  0
    4.9676   -4.8995    2.9813 N   0  0  0  0  0  0  0  0  0  0  0  0
    5.4353   -6.0453    1.8379 S   0  0  0  0  0  0  0  0  0  0  0  0
    5.9578   -5.0293    0.5995 N   0  0  0  0  0  0  0  0  0  0  0  0
    5.7624   -3.8012    1.0911 C   0  0  0  0  0  0  0  0  0  0  0  0
    4.9365   -1.0876   -2.3034 N   0  0  0  0  0  0  0  0  0  0  0  0
    3.8397   -0.8218   -3.0444 C   0  0  0  0  0  0  0  0  0  0  0  0
    2.2268   -1.5498   -4.2926 H   0  0  0  0  0  0  0  0  0  0  0  0
    2.9623   -3.9409   -4.0878 H   0  0  0  0  0  0  0  0  0  0  0  0
    5.0083   -4.4623   -2.7198 H   0  0  0  0  0  0  0  0  0  0  0  0
    6.0684   -0.4508    0.4767 H   0  0  0  0  0  0  0  0  0  0  0  0
    5.1064   -0.3452    2.7760 H   0  0  0  0  0  0  0  0  0  0  0  0
    4.5705   -2.4628    3.9983 H   0  0  0  0  0  0  0  0  0  0  0  0
    3.5485    0.2166   -3.1072 H   0  0  0  0  0  0  0  0  0  0  0  0
  1 16  2  0
  1  2  1  0
  1 17  1  0
  2  3  2  0
  2 18  1  0
  3  4  1  0
  3 19  1  0
  4  5  1  0
  4 15  2  0
  5  6  1  0
  6 14  1  0
  6  7  2  0
  7  8  1  0
  7 20  1  0
  8  9  2  0
  8 21  1  0
  9 10  1  0
  9 22  1  0
 10 14  1  0
 10 11  2  0
 11 12  1  0
 12 13  1  0
 13 14  2  0
 15 16  1  0
 16 23  1  0
M  END
>  <i_m_ct_stereo_status>  (44) 
1

>  <s_m_source_file>  (44) 
/var/tmp/pbs.5076255.sched01/tmpsofmo5yl/0au1p7r3z.sdf

>  <i_m_source_file_index>  (44) 
20

>  <i_lp_mmshare_version>  (44) 
48012

>  <i_f3d_flags>  (44) 
0

>  <s_epik_input>  (44) 
bjFbY0hdW2NIXVtjSF1bY0hdYzFTYyhbY0hdW2NIXVtjSF0yKWMoYzIzKW5zbjM=

>  <s_epik_cmdline>  (44) 
J2VwaWtfcHl0aG9uJywgJy1waHQnLCAnMi4wJywgJy1waCcsICc3LjAnLCAnLXRuJywgJzgnLCAnLW1hJywgJzIwMCcsICctaW1hZScsICc8aW5maWxlLm1hZT4nLCAnLW9tYWUnLCAnPG91dGZpbGUubWFlPic=

>  <r_lp_tautomer_probability>  (44) 
1

>  <r_epik_Ionization_Penalty>  (44) 
0.0620557

>  <r_epik_Ionization_Penalty_Charging>  (44) 
0

>  <r_epik_Ionization_Penalty_Neutral>  (44) 
0.0620557

>  <r_epik_State_Penalty>  (44) 
0.0539045

>  <r_epik_Charging_Adjusted_Penalty>  (44) 
0.0539045

>  <i_epik_Tot_Q>  (44) 
0

>  <i_epik_Tot_abs_Q>  (44) 
0

>  <s_lp_Force_Field>  (44) 
OPLS3e

>  <r_lp_Energy>  (44) 
25.8365

>  <b_lp_Chiralities_Consistent>  (44) 
1

>  <s_lp_Variant>  (44) 
16:0-1

>  <s_i_glide_gridfile>  (44) 
pfpi4k_grid

>  <i_i_glide_lignum>  (44) 
20

>  <i_i_glide_rotatable_bonds>  (44) 
2

>  <r_i_docking_score>  (44) 
-3.92121

>  <r_i_glide_ligand_efficiency>  (44) 
-0.245076

>  <r_i_glide_ligand_efficiency_sa>  (44) 
-0.617552

>  <r_i_glide_ligand_efficiency_ln>  (44) 
-1.03939

>  <r_i_glide_gscore>  (44) 
-3.92121

>  <r_i_glide_lipo>  (44) 
-1.16151

>  <r_i_glide_hbond>  (44) 
0

>  <r_i_glide_metal>  (44) 
-0

>  <r_i_glide_rewards>  (44) 
-1.73642

>  <r_i_glide_evdw>  (44) 
-25.9702

>  <r_i_glide_ecoul>  (44) 
-2.0211

>  <r_i_glide_erotb>  (44) 
0.578396

>  <r_i_glide_esite>  (44) 
0

>  <r_i_glide_emodel>  (44) 
-35.0976

>  <r_i_glide_energy>  (44) 
-27.9913

>  <r_i_glide_einternal>  (44) 
0.244016

>  <r_i_glide_intrahb_reward>  (44) 
-0

>  <i_i_glide_confnum>  (44) 
6

>  <i_i_glide_posenum>  (44) 
17

>  <r_i_glide_eff_state_penalty>  (44) 
0

>  <ligand_id>  (44) 
16

>  <original_smiles>  (44) 
c1ccc(Sc2cccc3nsnc23)nc1

>  <smiles>  (44) 
[H]c1nc(Sc2c([H])c([H])c([H])c3nsnc23)c([H])c([H])c1[H]

$$$$
16:0:1
     RDKit          3D

 23 25  0  0  1  0  0  0  0  0999 V2000
    3.0849   -1.7165   -3.8015 C   0  0  0  0  0  0  0  0  0  0  0  0
    3.4712   -3.0691   -3.7729 C   0  0  0  0  0  0  0  0  0  0  0  0
    4.5975   -3.4342   -3.0137 C   0  0  0  0  0  0  0  0  0  0  0  0
    5.2627   -2.4264   -2.2932 C   0  0  0  0  0  0  0  0  0  0  0  0
    6.6716   -2.8009   -1.3044 S   0  0  0  0  0  0  0  0  0  0  0  0
    5.8826   -3.3895    0.1674 C   0  0  0  0  0  0  0  0  0  0  0  0
    5.5457   -4.7569    0.2877 C   0  0  0  0  0  0  0  0  0  0  0  0
    4.9073   -5.2363    1.4508 C   0  0  0  0  0  0  0  0  0  0  0  0
    4.6024   -4.3529    2.5077 C   0  0  0  0  0  0  0  0  0  0  0  0
    4.9466   -2.9936    2.3840 C   0  0  0  0  0  0  0  0  0  0  0  0
    4.6929   -2.0990    3.3424 N   0  0  0  0  0  0  0  0  0  0  0  0
    5.2874   -0.6571    2.7025 S   0  0  0  0  0  0  0  0  0  0  0  0
    5.8638   -1.2060    1.2175 N   0  0  0  0  0  0  0  0  0  0  0  0
    5.5799   -2.5123    1.2309 C   0  0  0  0  0  0  0  0  0  0  0  0
    4.9072   -1.1246   -2.3109 N   0  0  0  0  0  0  0  0  0  0  0  0
    3.8281   -0.7857   -3.0506 C   0  0  0  0  0  0  0  0  0  0  0  0
    2.2226   -1.4037   -4.3711 H   0  0  0  0  0  0  0  0  0  0  0  0
    2.9130   -3.8150   -4.3188 H   0  0  0  0  0  0  0  0  0  0  0  0
    4.9209   -4.4638   -2.9657 H   0  0  0  0  0  0  0  0  0  0  0  0
    5.7681   -5.4470   -0.5127 H   0  0  0  0  0  0  0  0  0  0  0  0
    4.6479   -6.2831    1.5339 H   0  0  0  0  0  0  0  0  0  0  0  0
    4.1115   -4.7177    3.3986 H   0  0  0  0  0  0  0  0  0  0  0  0
    3.5519    0.2579   -3.0600 H   0  0  0  0  0  0  0  0  0  0  0  0
  1 16  2  0
  1  2  1  0
  1 17  1  0
  2  3  2  0
  2 18  1  0
  3  4  1  0
  3 19  1  0
  4  5  1  0
  4 15  2  0
  5  6  1  0
  6 14  1  0
  6  7  2  0
  7  8  1  0
  7 20  1  0
  8  9  2  0
  8 21  1  0
  9 10  1  0
  9 22  1  0
 10 14  1  0
 10 11  2  0
 11 12  1  0
 12 13  1  0
 13 14  2  0
 15 16  1  0
 16 23  1  0
M  END
>  <i_m_ct_stereo_status>  (45) 
1

>  <s_m_source_file>  (45) 
/var/tmp/pbs.5076255.sched01/tmpsofmo5yl/0au1p7r3z.sdf

>  <i_m_source_file_index>  (45) 
20

>  <i_lp_mmshare_version>  (45) 
48012

>  <i_f3d_flags>  (45) 
0

>  <s_epik_input>  (45) 
bjFbY0hdW2NIXVtjSF1bY0hdYzFTYyhbY0hdW2NIXVtjSF0yKWMoYzIzKW5zbjM=

>  <s_epik_cmdline>  (45) 
J2VwaWtfcHl0aG9uJywgJy1waHQnLCAnMi4wJywgJy1waCcsICc3LjAnLCAnLXRuJywgJzgnLCAnLW1hJywgJzIwMCcsICctaW1hZScsICc8aW5maWxlLm1hZT4nLCAnLW9tYWUnLCAnPG91dGZpbGUubWFlPic=

>  <r_lp_tautomer_probability>  (45) 
1

>  <r_epik_Ionization_Penalty>  (45) 
0.0620557

>  <r_epik_Ionization_Penalty_Charging>  (45) 
0

>  <r_epik_Ionization_Penalty_Neutral>  (45) 
0.0620557

>  <r_epik_State_Penalty>  (45) 
0.0539045

>  <r_epik_Charging_Adjusted_Penalty>  (45) 
0.0539045

>  <i_epik_Tot_Q>  (45) 
0

>  <i_epik_Tot_abs_Q>  (45) 
0

>  <s_lp_Force_Field>  (45) 
OPLS3e

>  <r_lp_Energy>  (45) 
25.8365

>  <b_lp_Chiralities_Consistent>  (45) 
1

>  <s_lp_Variant>  (45) 
16:0-1

>  <s_i_glide_gridfile>  (45) 
pfpi4k_grid

>  <i_i_glide_lignum>  (45) 
20

>  <i_i_glide_rotatable_bonds>  (45) 
2

>  <r_i_docking_score>  (45) 
-3.76144

>  <r_i_glide_ligand_efficiency>  (45) 
-0.23509

>  <r_i_glide_ligand_efficiency_sa>  (45) 
-0.592389

>  <r_i_glide_ligand_efficiency_ln>  (45) 
-0.997044

>  <r_i_glide_gscore>  (45) 
-3.76144

>  <r_i_glide_lipo>  (45) 
-1.03063

>  <r_i_glide_hbond>  (45) 
0

>  <r_i_glide_metal>  (45) 
-0

>  <r_i_glide_rewards>  (45) 
-1.73642

>  <r_i_glide_evdw>  (45) 
-26.7802

>  <r_i_glide_ecoul>  (45) 
-1.55849

>  <r_i_glide_erotb>  (45) 
0.578396

>  <r_i_glide_esite>  (45) 
0

>  <r_i_glide_emodel>  (45) 
-35.2685

>  <r_i_glide_energy>  (45) 
-28.3387

>  <r_i_glide_einternal>  (45) 
0.055824

>  <r_i_glide_intrahb_reward>  (45) 
-0

>  <i_i_glide_confnum>  (45) 
2

>  <i_i_glide_posenum>  (45) 
1

>  <r_i_glide_eff_state_penalty>  (45) 
0

>  <ligand_id>  (45) 
16

>  <original_smiles>  (45) 
c1ccc(Sc2cccc3nsnc23)nc1

>  <smiles>  (45) 
[H]c1nc(Sc2c([H])c([H])c([H])c3nsnc23)c([H])c([H])c1[H]

$$$$
16:0:2
     RDKit          3D

 23 25  0  0  1  0  0  0  0  0999 V2000
    3.1036   -2.2139   -3.6923 C   0  0  0  0  0  0  0  0  0  0  0  0
    3.4544   -1.1277   -2.8666 C   0  0  0  0  0  0  0  0  0  0  0  0
    4.6039   -1.2396   -2.0637 C   0  0  0  0  0  0  0  0  0  0  0  0
    5.3368   -2.4366   -2.1210 C   0  0  0  0  0  0  0  0  0  0  0  0
    6.7876   -2.6577   -1.1450 S   0  0  0  0  0  0  0  0  0  0  0  0
    6.0797   -3.3081    0.3355 C   0  0  0  0  0  0  0  0  0  0  0  0
    5.9174   -4.7046    0.4744 C   0  0  0  0  0  0  0  0  0  0  0  0
    5.3565   -5.2531    1.6474 C   0  0  0  0  0  0  0  0  0  0  0  0
    4.9527   -4.3987    2.6961 C   0  0  0  0  0  0  0  0  0  0  0  0
    5.1182   -3.0114    2.5557 C   0  0  0  0  0  0  0  0  0  0  0  0
    4.7643   -2.1543    3.5114 N   0  0  0  0  0  0  0  0  0  0  0  0
    5.1704   -0.6566    2.8630 S   0  0  0  0  0  0  0  0  0  0  0  0
    5.7963   -1.1322    1.3763 N   0  0  0  0  0  0  0  0  0  0  0  0
    5.6762   -2.4637    1.3952 C   0  0  0  0  0  0  0  0  0  0  0  0
    5.0186   -3.4776   -2.9150 N   0  0  0  0  0  0  0  0  0  0  0  0
    3.9090   -3.3673   -3.6728 C   0  0  0  0  0  0  0  0  0  0  0  0
    2.2221   -2.1741   -4.3176 H   0  0  0  0  0  0  0  0  0  0  0  0
    2.8486   -0.2364   -2.8501 H   0  0  0  0  0  0  0  0  0  0  0  0
    4.9063   -0.4378   -1.4044 H   0  0  0  0  0  0  0  0  0  0  0  0
    6.2201   -5.3651   -0.3210 H   0  0  0  0  0  0  0  0  0  0  0  0
    5.2348   -6.3237    1.7405 H   0  0  0  0  0  0  0  0  0  0  0  0
    4.5206   -4.8053    3.6003 H   0  0  0  0  0  0  0  0  0  0  0  0
    3.6656   -4.2228   -4.2881 H   0  0  0  0  0  0  0  0  0  0  0  0
  1 16  2  0
  1  2  1  0
  1 17  1  0
  2  3  2  0
  2 18  1  0
  3  4  1  0
  3 19  1  0
  4  5  1  0
  4 15  2  0
  5  6  1  0
  6 14  1  0
  6  7  2  0
  7  8  1  0
  7 20  1  0
  8  9  2  0
  8 21  1  0
  9 10  1  0
  9 22  1  0
 10 14  1  0
 10 11  2  0
 11 12  1  0
 12 13  1  0
 13 14  2  0
 15 16  1  0
 16 23  1  0
M  END
>  <i_m_ct_stereo_status>  (46) 
1

>  <s_m_source_file>  (46) 
/var/tmp/pbs.5076255.sched01/tmpsofmo5yl/0au1p7r3z.sdf

>  <i_m_source_file_index>  (46) 
20

>  <i_lp_mmshare_version>  (46) 
48012

>  <i_f3d_flags>  (46) 
0

>  <s_epik_input>  (46) 
bjFbY0hdW2NIXVtjSF1bY0hdYzFTYyhbY0hdW2NIXVtjSF0yKWMoYzIzKW5zbjM=

>  <s_epik_cmdline>  (46) 
J2VwaWtfcHl0aG9uJywgJy1waHQnLCAnMi4wJywgJy1waCcsICc3LjAnLCAnLXRuJywgJzgnLCAnLW1hJywgJzIwMCcsICctaW1hZScsICc8aW5maWxlLm1hZT4nLCAnLW9tYWUnLCAnPG91dGZpbGUubWFlPic=

>  <r_lp_tautomer_probability>  (46) 
1

>  <r_epik_Ionization_Penalty>  (46) 
0.0620557

>  <r_epik_Ionization_Penalty_Charging>  (46) 
0

>  <r_epik_Ionization_Penalty_Neutral>  (46) 
0.0620557

>  <r_epik_State_Penalty>  (46) 
0.0539045

>  <r_epik_Charging_Adjusted_Penalty>  (46) 
0.0539045

>  <i_epik_Tot_Q>  (46) 
0

>  <i_epik_Tot_abs_Q>  (46) 
0

>  <s_lp_Force_Field>  (46) 
OPLS3e

>  <r_lp_Energy>  (46) 
25.8365

>  <b_lp_Chiralities_Consistent>  (46) 
1

>  <s_lp_Variant>  (46) 
16:0-1

>  <s_i_glide_gridfile>  (46) 
pfpi4k_grid

>  <i_i_glide_lignum>  (46) 
20

>  <i_i_glide_rotatable_bonds>  (46) 
2

>  <r_i_docking_score>  (46) 
-3.5501

>  <r_i_glide_ligand_efficiency>  (46) 
-0.221881

>  <r_i_glide_ligand_efficiency_sa>  (46) 
-0.559105

>  <r_i_glide_ligand_efficiency_ln>  (46) 
-0.941024

>  <r_i_glide_gscore>  (46) 
-3.5501

>  <r_i_glide_lipo>  (46) 
-0.937822

>  <r_i_glide_hbond>  (46) 
0

>  <r_i_glide_metal>  (46) 
-0

>  <r_i_glide_rewards>  (46) 
-1.73642

>  <r_i_glide_evdw>  (46) 
-27.0287

>  <r_i_glide_ecoul>  (46) 
-0.685445

>  <r_i_glide_erotb>  (46) 
0.578396

>  <r_i_glide_esite>  (46) 
0

>  <r_i_glide_emodel>  (46) 
-34.2829

>  <r_i_glide_energy>  (46) 
-27.7142

>  <r_i_glide_einternal>  (46) 
0.00766647

>  <r_i_glide_intrahb_reward>  (46) 
-0

>  <i_i_glide_confnum>  (46) 
1

>  <i_i_glide_posenum>  (46) 
11

>  <r_i_glide_eff_state_penalty>  (46) 
0

>  <ligand_id>  (46) 
16

>  <original_smiles>  (46) 
c1ccc(Sc2cccc3nsnc23)nc1

>  <smiles>  (46) 
[H]c1nc(Sc2c([H])c([H])c([H])c3nsnc23)c([H])c([H])c1[H]

$$$$
16:1:0
     RDKit          3D

 24 26  0  0  1  0  0  0  0  0999 V2000
    2.7368   -2.0620   -3.7554 C   0  0  0  0  0  0  0  0  0  0  0  0
    3.3442   -0.9186   -3.1979 C   0  0  0  0  0  0  0  0  0  0  0  0
    4.5213   -1.0755   -2.4390 C   0  0  0  0  0  0  0  0  0  0  0  0
    5.0530   -2.3693   -2.2696 C   0  0  0  0  0  0  0  0  0  0  0  0
    6.5293   -2.6587   -1.3559 S   0  0  0  0  0  0  0  0  0  0  0  0
    5.8567   -3.2956    0.1493 C   0  0  0  0  0  0  0  0  0  0  0  0
    5.5931   -4.6781    0.2526 C   0  0  0  0  0  0  0  0  0  0  0  0
    5.0664   -5.2182    1.4460 C   0  0  0  0  0  0  0  0  0  0  0  0
    4.8042   -4.3731    2.5441 C   0  0  0  0  0  0  0  0  0  0  0  0
    5.0669   -2.9936    2.4332 C   0  0  0  0  0  0  0  0  0  0  0  0
    4.8438   -2.1398    3.4305 N   0  0  0  0  0  0  0  0  0  0  0  0
    5.3149   -0.6583    2.7949 S   0  0  0  0  0  0  0  0  0  0  0  0
    5.7985   -1.1371    1.2534 N   0  0  0  0  0  0  0  0  0  0  0  0
    5.5862   -2.4557    1.2530 C   0  0  0  0  0  0  0  0  0  0  0  0
    4.4478   -3.4415   -2.8262 N   0  0  0  0  0  0  0  0  0  0  0  0
    3.3108   -3.3295   -3.5455 C   0  0  0  0  0  0  0  0  0  0  0  0
    1.8214   -1.9791   -4.3192 H   0  0  0  0  0  0  0  0  0  0  0  0
    2.9007    0.0604   -3.3384 H   0  0  0  0  0  0  0  0  0  0  0  0
    5.0006   -0.2179   -1.9922 H   0  0  0  0  0  0  0  0  0  0  0  0
    5.7975   -5.3297   -0.5855 H   0  0  0  0  0  0  0  0  0  0  0  0
    4.8683   -6.2799    1.5188 H   0  0  0  0  0  0  0  0  0  0  0  0
    4.4065   -4.7774    3.4633 H   0  0  0  0  0  0  0  0  0  0  0  0
    2.8793   -4.2499   -3.9200 H   0  0  0  0  0  0  0  0  0  0  0  0
    4.8406   -4.3733   -2.6803 H   0  0  0  0  0  0  0  0  0  0  0  0
  1 16  2  0
  1  2  1  0
  1 17  1  0
  2  3  2  0
  2 18  1  0
  3  4  1  0
  3 19  1  0
  4  5  1  0
  4 15  2  0
  5  6  1  0
  6 14  1  0
  6  7  2  0
  7  8  1  0
  7 20  1  0
  8  9  2  0
  8 21  1  0
  9 10  1  0
  9 22  1  0
 10 14  1  0
 10 11  2  0
 11 12  1  0
 12 13  1  0
 13 14  2  0
 15 16  1  0
 15 24  1  0
 16 23  1  0
M  CHG  1  15   1
M  END
>  <i_m_ct_stereo_status>  (47) 
1

>  <s_m_source_file>  (47) 
/var/tmp/pbs.5076255.sched01/tmpsofmo5yl/0au1p7r3z.sdf

>  <i_m_source_file_index>  (47) 
21

>  <i_lp_mmshare_version>  (47) 
48012

>  <i_f3d_flags>  (47) 
0

>  <s_epik_input>  (47) 
bjFbY0hdW2NIXVtjSF1bY0hdYzFTYyhbY0hdW2NIXVtjSF0yKWMoYzIzKW5zbjM=

>  <s_epik_cmdline>  (47) 
J2VwaWtfcHl0aG9uJywgJy1waHQnLCAnMi4wJywgJy1waCcsICc3LjAnLCAnLXRuJywgJzgnLCAnLW1hJywgJzIwMCcsICctaW1hZScsICc8aW5maWxlLm1hZT4nLCAnLW9tYWUnLCAnPG91dGZpbGUubWFlPic=

>  <r_epik_Ionization_Penalty>  (47) 
1.36758

>  <r_epik_Ionization_Penalty_Charging>  (47) 
1.36758

>  <r_epik_Ionization_Penalty_Neutral>  (47) 
1.89312e-13

>  <r_epik_State_Penalty>  (47) 
1.447

>  <r_epik_Charging_Adjusted_Penalty>  (47) 
2.81458

>  <i_epik_Tot_Q>  (47) 
1

>  <i_epik_Tot_abs_Q>  (47) 
1

>  <s_lp_Force_Field>  (47) 
OPLS3e

>  <r_lp_Energy>  (47) 
29.9457

>  <b_lp_Chiralities_Consistent>  (47) 
1

>  <s_lp_Variant>  (47) 
16:0-2

>  <s_i_glide_gridfile>  (47) 
pfpi4k_grid

>  <i_i_glide_lignum>  (47) 
21

>  <i_i_glide_rotatable_bonds>  (47) 
2

>  <r_i_docking_score>  (47) 
-4.1604

>  <r_i_glide_ligand_efficiency>  (47) 
-0.260025

>  <r_i_glide_ligand_efficiency_sa>  (47) 
-0.655222

>  <r_i_glide_ligand_efficiency_ln>  (47) 
-1.1028

>  <r_i_glide_gscore>  (47) 
-4.1604

>  <r_i_glide_lipo>  (47) 
-1.0013

>  <r_i_glide_hbond>  (47) 
0

>  <r_i_glide_metal>  (47) 
-0

>  <r_i_glide_rewards>  (47) 
-1.72955

>  <r_i_glide_evdw>  (47) 
-23.9378

>  <r_i_glide_ecoul>  (47) 
-5.38015

>  <r_i_glide_erotb>  (47) 
0.574353

>  <r_i_glide_esite>  (47) 
0

>  <r_i_glide_emodel>  (47) 
-38.7101

>  <r_i_glide_energy>  (47) 
-29.318

>  <r_i_glide_einternal>  (47) 
0.225385

>  <r_i_glide_intrahb_reward>  (47) 
-0

>  <i_i_glide_confnum>  (47) 
3

>  <i_i_glide_posenum>  (47) 
3

>  <r_i_glide_eff_state_penalty>  (47) 
0

>  <ligand_id>  (47) 
16

>  <original_smiles>  (47) 
c1ccc(Sc2cccc3nsnc23)nc1

>  <smiles>  (47) 
[H]c1c([H])c([H])[n+]([H])c(Sc2c([H])c([H])c([H])c3nsnc23)c1[H]

$$$$
16:1:1
     RDKit          3D

 24 26  0  0  1  0  0  0  0  0999 V2000
    2.7239   -1.6808   -3.9181 C   0  0  0  0  0  0  0  0  0  0  0  0
    3.5407   -0.7283   -3.2769 C   0  0  0  0  0  0  0  0  0  0  0  0
    4.5582   -1.1830   -2.4106 C   0  0  0  0  0  0  0  0  0  0  0  0
    4.7152   -2.5741   -2.2268 C   0  0  0  0  0  0  0  0  0  0  0  0
    5.9623   -3.2353   -1.1761 S   0  0  0  0  0  0  0  0  0  0  0  0
    5.0392   -3.4869    0.3101 C   0  0  0  0  0  0  0  0  0  0  0  0
    4.2776   -4.6697    0.4600 C   0  0  0  0  0  0  0  0  0  0  0  0
    3.5391   -4.8923    1.6439 C   0  0  0  0  0  0  0  0  0  0  0  0
    3.5677   -3.9348    2.6829 C   0  0  0  0  0  0  0  0  0  0  0  0
    4.3313   -2.7640    2.5241 C   0  0  0  0  0  0  0  0  0  0  0  0
    4.4028   -1.8223    3.4664 N   0  0  0  0  0  0  0  0  0  0  0  0
    5.4135   -0.6590    2.7845 S   0  0  0  0  0  0  0  0  0  0  0  0
    5.7474   -1.3903    1.3012 N   0  0  0  0  0  0  0  0  0  0  0  0
    5.0586   -2.5355    1.3527 C   0  0  0  0  0  0  0  0  0  0  0  0
    3.9120   -3.4552   -2.8645 N   0  0  0  0  0  0  0  0  0  0  0  0
    2.9197   -3.0544   -3.6854 C   0  0  0  0  0  0  0  0  0  0  0  0
    1.9335   -1.3680   -4.5906 H   0  0  0  0  0  0  0  0  0  0  0  0
    3.3815    0.3285   -3.4413 H   0  0  0  0  0  0  0  0  0  0  0  0
    5.1967   -0.4809   -1.8942 H   0  0  0  0  0  0  0  0  0  0  0  0
    4.2605   -5.4080   -0.3320 H   0  0  0  0  0  0  0  0  0  0  0  0
    2.9571   -5.7993    1.7605 H   0  0  0  0  0  0  0  0  0  0  0  0
    3.0123   -4.0975    3.5931 H   0  0  0  0  0  0  0  0  0  0  0  0
    2.3144   -3.8409   -4.1189 H   0  0  0  0  0  0  0  0  0  0  0  0
    4.0207   -4.4636   -2.7090 H   0  0  0  0  0  0  0  0  0  0  0  0
  1 16  2  0
  1  2  1  0
  1 17  1  0
  2  3  2  0
  2 18  1  0
  3  4  1  0
  3 19  1  0
  4  5  1  0
  4 15  2  0
  5  6  1  0
  6 14  1  0
  6  7  2  0
  7  8  1  0
  7 20  1  0
  8  9  2  0
  8 21  1  0
  9 10  1  0
  9 22  1  0
 10 14  1  0
 10 11  2  0
 11 12  1  0
 12 13  1  0
 13 14  2  0
 15 16  1  0
 15 24  1  0
 16 23  1  0
M  CHG  1  15   1
M  END
>  <i_m_ct_stereo_status>  (48) 
1

>  <s_m_source_file>  (48) 
/var/tmp/pbs.5076255.sched01/tmpsofmo5yl/0au1p7r3z.sdf

>  <i_m_source_file_index>  (48) 
21

>  <i_lp_mmshare_version>  (48) 
48012

>  <i_f3d_flags>  (48) 
0

>  <s_epik_input>  (48) 
bjFbY0hdW2NIXVtjSF1bY0hdYzFTYyhbY0hdW2NIXVtjSF0yKWMoYzIzKW5zbjM=

>  <s_epik_cmdline>  (48) 
J2VwaWtfcHl0aG9uJywgJy1waHQnLCAnMi4wJywgJy1waCcsICc3LjAnLCAnLXRuJywgJzgnLCAnLW1hJywgJzIwMCcsICctaW1hZScsICc8aW5maWxlLm1hZT4nLCAnLW9tYWUnLCAnPG91dGZpbGUubWFlPic=

>  <r_epik_Ionization_Penalty>  (48) 
1.36758

>  <r_epik_Ionization_Penalty_Charging>  (48) 
1.36758

>  <r_epik_Ionization_Penalty_Neutral>  (48) 
1.89312e-13

>  <r_epik_State_Penalty>  (48) 
1.447

>  <r_epik_Charging_Adjusted_Penalty>  (48) 
2.81458

>  <i_epik_Tot_Q>  (48) 
1

>  <i_epik_Tot_abs_Q>  (48) 
1

>  <s_lp_Force_Field>  (48) 
OPLS3e

>  <r_lp_Energy>  (48) 
29.9457

>  <b_lp_Chiralities_Consistent>  (48) 
1

>  <s_lp_Variant>  (48) 
16:0-2

>  <s_i_glide_gridfile>  (48) 
pfpi4k_grid

>  <i_i_glide_lignum>  (48) 
21

>  <i_i_glide_rotatable_bonds>  (48) 
2

>  <r_i_docking_score>  (48) 
-4.13706

>  <r_i_glide_ligand_efficiency>  (48) 
-0.258566

>  <r_i_glide_ligand_efficiency_sa>  (48) 
-0.651547

>  <r_i_glide_ligand_efficiency_ln>  (48) 
-1.09661

>  <r_i_glide_gscore>  (48) 
-4.13706

>  <r_i_glide_lipo>  (48) 
-0.846157

>  <r_i_glide_hbond>  (48) 
0

>  <r_i_glide_metal>  (48) 
-0

>  <r_i_glide_rewards>  (48) 
-1.72955

>  <r_i_glide_evdw>  (48) 
-22.2386

>  <r_i_glide_ecoul>  (48) 
-6.70062

>  <r_i_glide_erotb>  (48) 
0.574353

>  <r_i_glide_esite>  (48) 
-0.018688

>  <r_i_glide_emodel>  (48) 
-38.345

>  <r_i_glide_energy>  (48) 
-28.9392

>  <r_i_glide_einternal>  (48) 
0.108039

>  <r_i_glide_intrahb_reward>  (48) 
-0

>  <i_i_glide_confnum>  (48) 
3

>  <i_i_glide_posenum>  (48) 
27

>  <r_i_glide_eff_state_penalty>  (48) 
0

>  <ligand_id>  (48) 
16

>  <original_smiles>  (48) 
c1ccc(Sc2cccc3nsnc23)nc1

>  <smiles>  (48) 
[H]c1c([H])c([H])[n+]([H])c(Sc2c([H])c([H])c([H])c3nsnc23)c1[H]

$$$$
16:1:2
     RDKit          3D

 24 26  0  0  1  0  0  0  0  0999 V2000
    3.0245   -1.2860   -3.6883 C   0  0  0  0  0  0  0  0  0  0  0  0
    3.9860   -0.7515   -2.8045 C   0  0  0  0  0  0  0  0  0  0  0  0
    4.6273   -1.6115   -1.8949 C   0  0  0  0  0  0  0  0  0  0  0  0
    4.2638   -2.9731   -1.8642 C   0  0  0  0  0  0  0  0  0  0  0  0
    5.0171   -4.1176   -0.7569 S   0  0  0  0  0  0  0  0  0  0  0  0
    4.2330   -3.6881    0.7687 C   0  0  0  0  0  0  0  0  0  0  0  0
    3.1471   -4.4706    1.2273 C   0  0  0  0  0  0  0  0  0  0  0  0
    2.5133   -4.1519    2.4482 C   0  0  0  0  0  0  0  0  0  0  0  0
    2.9578   -3.0441    3.2064 C   0  0  0  0  0  0  0  0  0  0  0  0
    4.0351   -2.2762    2.7426 C   0  0  0  0  0  0  0  0  0  0  0  0
    4.4953   -1.2171    3.4115 N   0  0  0  0  0  0  0  0  0  0  0  0
    5.7517   -0.6592    2.4418 S   0  0  0  0  0  0  0  0  0  0  0  0
    5.7095   -1.8110    1.2103 N   0  0  0  0  0  0  0  0  0  0  0  0
    4.6798   -2.5958    1.5447 C   0  0  0  0  0  0  0  0  0  0  0  0
    3.3344   -3.4560   -2.7230 N   0  0  0  0  0  0  0  0  0  0  0  0
    2.7031   -2.6611   -3.6174 C   0  0  0  0  0  0  0  0  0  0  0  0
    2.5143   -0.6385   -4.3898 H   0  0  0  0  0  0  0  0  0  0  0  0
    4.2192    0.3071   -2.8072 H   0  0  0  0  0  0  0  0  0  0  0  0
    5.3723   -1.2295   -1.2161 H   0  0  0  0  0  0  0  0  0  0  0  0
    2.8144   -5.3216    0.6486 H   0  0  0  0  0  0  0  0  0  0  0  0
    1.6880   -4.7498    2.8091 H   0  0  0  0  0  0  0  0  0  0  0  0
    2.4787   -2.7896    4.1400 H   0  0  0  0  0  0  0  0  0  0  0  0
    1.9664   -3.1458   -4.2466 H   0  0  0  0  0  0  0  0  0  0  0  0
    3.1072   -4.4647   -2.7006 H   0  0  0  0  0  0  0  0  0  0  0  0
  1 16  2  0
  1  2  1  0
  1 17  1  0
  2  3  2  0
  2 18  1  0
  3  4  1  0
  3 19  1  0
  4  5  1  0
  4 15  2  0
  5  6  1  0
  6 14  1  0
  6  7  2  0
  7  8  1  0
  7 20  1  0
  8  9  2  0
  8 21  1  0
  9 10  1  0
  9 22  1  0
 10 14  1  0
 10 11  2  0
 11 12  1  0
 12 13  1  0
 13 14  2  0
 15 16  1  0
 15 24  1  0
 16 23  1  0
M  CHG  1  15   1
M  END
>  <i_m_ct_stereo_status>  (49) 
1

>  <s_m_source_file>  (49) 
/var/tmp/pbs.5076255.sched01/tmpsofmo5yl/0au1p7r3z.sdf

>  <i_m_source_file_index>  (49) 
21

>  <i_lp_mmshare_version>  (49) 
48012

>  <i_f3d_flags>  (49) 
0

>  <s_epik_input>  (49) 
bjFbY0hdW2NIXVtjSF1bY0hdYzFTYyhbY0hdW2NIXVtjSF0yKWMoYzIzKW5zbjM=

>  <s_epik_cmdline>  (49) 
J2VwaWtfcHl0aG9uJywgJy1waHQnLCAnMi4wJywgJy1waCcsICc3LjAnLCAnLXRuJywgJzgnLCAnLW1hJywgJzIwMCcsICctaW1hZScsICc8aW5maWxlLm1hZT4nLCAnLW9tYWUnLCAnPG91dGZpbGUubWFlPic=

>  <r_epik_Ionization_Penalty>  (49) 
1.36758

>  <r_epik_Ionization_Penalty_Charging>  (49) 
1.36758

>  <r_epik_Ionization_Penalty_Neutral>  (49) 
1.89312e-13

>  <r_epik_State_Penalty>  (49) 
1.447

>  <r_epik_Charging_Adjusted_Penalty>  (49) 
2.81458

>  <i_epik_Tot_Q>  (49) 
1

>  <i_epik_Tot_abs_Q>  (49) 
1

>  <s_lp_Force_Field>  (49) 
OPLS3e

>  <r_lp_Energy>  (49) 
29.9457

>  <b_lp_Chiralities_Consistent>  (49) 
1

>  <s_lp_Variant>  (49) 
16:0-2

>  <s_i_glide_gridfile>  (49) 
pfpi4k_grid

>  <i_i_glide_lignum>  (49) 
21

>  <i_i_glide_rotatable_bonds>  (49) 
2

>  <r_i_docking_score>  (49) 
-4.03569

>  <r_i_glide_ligand_efficiency>  (49) 
-0.252231

>  <r_i_glide_ligand_efficiency_sa>  (49) 
-0.635582

>  <r_i_glide_ligand_efficiency_ln>  (49) 
-1.06974

>  <r_i_glide_gscore>  (49) 
-4.03569

>  <r_i_glide_lipo>  (49) 
-0.690143

>  <r_i_glide_hbond>  (49) 
0

>  <r_i_glide_metal>  (49) 
-0

>  <r_i_glide_rewards>  (49) 
-1.72955

>  <r_i_glide_evdw>  (49) 
-21.6902

>  <r_i_glide_ecoul>  (49) 
-7.17534

>  <r_i_glide_erotb>  (49) 
0.574353

>  <r_i_glide_esite>  (49) 
-0.0295471

>  <r_i_glide_emodel>  (49) 
-37.6646

>  <r_i_glide_energy>  (49) 
-28.8655

>  <r_i_glide_einternal>  (49) 
0.394642

>  <r_i_glide_intrahb_reward>  (49) 
-0

>  <i_i_glide_confnum>  (49) 
3

>  <i_i_glide_posenum>  (49) 
35

>  <r_i_glide_eff_state_penalty>  (49) 
0

>  <ligand_id>  (49) 
16

>  <original_smiles>  (49) 
c1ccc(Sc2cccc3nsnc23)nc1

>  <smiles>  (49) 
[H]c1c([H])c([H])[n+]([H])c(Sc2c([H])c([H])c([H])c3nsnc23)c1[H]

$$$$
17:0:0
     RDKit          3D

 52 57  0  0  1  0  0  0  0  0999 V2000
    0.2154  -10.0001    3.1079 C   0  0  0  0  0  0  0  0  0  0  0  0
    0.6477   -8.6525    3.2277 O   0  0  0  0  0  0  0  0  0  0  0  0
    1.9459   -8.3520    3.0608 C   0  0  0  0  0  0  0  0  0  0  0  0
    2.8420   -9.1492    2.7919 O   0  0  0  0  0  0  0  0  0  0  0  0
    2.2290   -6.8541    3.2530 C   0  0  0  0  0  0  0  0  0  0  0  0
    3.0903   -6.3159    2.1920 N   0  0  0  0  0  0  0  0  0  0  0  0
    2.6314   -5.8672    1.0169 C   0  0  0  0  0  0  0  0  0  0  0  0
    1.4476   -5.8557    0.6629 O   0  0  0  0  0  0  0  0  0  0  0  0
    3.7820   -5.3723    0.1383 C   0  0  2  0  0  0  0  0  0  0  0  0
    5.0271   -5.5980    1.0248 C   0  0  2  0  0  0  0  0  0  0  0  0
    4.4223   -6.1863    2.2996 C   0  0  0  0  0  0  0  0  0  0  0  0
    5.1020   -6.4864    3.2813 O   0  0  0  0  0  0  0  0  0  0  0  0
    5.8409   -4.2619    1.1604 C   0  0  1  0  0  0  0  0  0  0  0  0
    6.1477   -3.8707   -0.2833 C   0  0  0  0  0  0  0  0  0  0  0  0
    5.0662   -3.6797   -1.0566 C   0  0  0  0  0  0  0  0  0  0  0  0
    3.7290   -3.8838   -0.3494 C   0  0  2  0  0  0  0  0  0  0  0  0
    3.6657   -2.9211    0.8934 C   0  0  2  0  0  0  0  0  0  0  0  0
    3.5082   -1.3853    0.5974 C   0  0  2  0  0  0  0  0  0  0  0  0
    4.8109   -0.8620    0.0078 C   0  0  0  0  0  0  0  0  0  0  0  0
    5.8937   -1.0551    0.7786 C   0  0  0  0  0  0  0  0  0  0  0  0
    5.6131   -1.7638    2.0963 C   0  0  1  0  0  0  0  0  0  0  0  0
    4.6054   -0.8106    2.8248 C   0  0  1  0  0  0  0  0  0  0  0  0
    3.3567   -0.5853    1.9356 C   0  0  2  0  0  0  0  0  0  0  0  0
    2.2081   -1.0026    2.8534 C   0  0  0  0  0  0  0  0  0  0  0  0
    1.0259   -0.9767    2.5070 O   0  0  0  0  0  0  0  0  0  0  0  0
    2.6652   -1.3862    4.0531 N   0  0  0  0  0  0  0  0  0  0  0  0
    1.8014   -1.8170    5.1544 C   0  0  0  0  0  0  0  0  0  0  0  0
    4.0036   -1.3248    4.1298 C   0  0  0  0  0  0  0  0  0  0  0  0
    4.6892   -1.6272    5.1047 O   0  0  0  0  0  0  0  0  0  0  0  0
    4.9348   -3.1484    1.7984 C   0  0  2  0  0  0  0  0  0  0  0  0
   -0.8592  -10.0635    3.2766 H   0  0  0  0  0  0  0  0  0  0  0  0
    0.7053  -10.6406    3.8451 H   0  0  0  0  0  0  0  0  0  0  0  0
    0.4195  -10.3977    2.1116 H   0  0  0  0  0  0  0  0  0  0  0  0
    1.2876   -6.2997    3.2722 H   0  0  0  0  0  0  0  0  0  0  0  0
    2.7041   -6.7111    4.2239 H   0  0  0  0  0  0  0  0  0  0  0  0
    3.8507   -6.0441   -0.7083 H   0  0  0  0  0  0  0  0  0  0  0  0
    5.6676   -6.3625    0.5773 H   0  0  0  0  0  0  0  0  0  0  0  0
    6.7621   -4.4130    1.7199 H   0  0  0  0  0  0  0  0  0  0  0  0
    7.1697   -3.7695   -0.6236 H   0  0  0  0  0  0  0  0  0  0  0  0
    5.1011   -3.4030   -2.1001 H   0  0  0  0  0  0  0  0  0  0  0  0
    2.9032   -3.7171   -1.0392 H   0  0  0  0  0  0  0  0  0  0  0  0
    2.7810   -3.2148    1.4580 H   0  0  0  0  0  0  0  0  0  0  0  0
    2.6769   -1.1882   -0.0683 H   0  0  0  0  0  0  0  0  0  0  0  0
    4.8214   -0.3696   -0.9535 H   0  0  0  0  0  0  0  0  0  0  0  0
    6.8967   -0.7440    0.5276 H   0  0  0  0  0  0  0  0  0  0  0  0
    6.5318   -1.8707    2.6589 H   0  0  0  0  0  0  0  0  0  0  0  0
    3.2418    0.4778    1.7152 H   0  0  0  0  0  0  0  0  0  0  0  0
    2.3084   -2.5359    5.7994 H   0  0  0  0  0  0  0  0  0  0  0  0
    0.8943   -2.2929    4.7830 H   0  0  0  0  0  0  0  0  0  0  0  0
    1.5082   -0.9622    5.7652 H   0  0  0  0  0  0  0  0  0  0  0  0
    5.0926    0.1432    3.0372 H   0  0  0  0  0  0  0  0  0  0  0  0
    4.6038   -3.5430    2.7596 H   0  0  0  0  0  0  0  0  0  0  0  0
  1  2  1  0
  1 31  1  0
  1 32  1  0
  1 33  1  0
  2  3  1  0
  3  4  2  0
  3  5  1  0
  5 34  1  0
  5 35  1  0
  5  6  1  0
  6 11  1  0
  6  7  1  0
  7  8  2  0
  7  9  1  0
  9 16  1  0
  9 36  1  6
  9 10  1  0
 10 13  1  0
 10 37  1  6
 10 11  1  0
 11 12  2  0
 13 30  1  0
 13 14  1  0
 13 38  1  1
 14 15  2  0
 14 39  1  0
 15 16  1  0
 15 40  1  0
 16 17  1  0
 16 41  1  6
 17 30  1  0
 17 18  1  0
 17 42  1  1
 18 19  1  0
 18 43  1  6
 18 23  1  0
 19 20  2  0
 19 44  1  0
 20 21  1  0
 20 45  1  0
 21 30  1  0
 21 46  1  1
 21 22  1  0
 22 23  1  0
 22 51  1  1
 22 28  1  0
 23 24  1  0
 23 47  1  6
 24 25  2  0
 24 26  1  0
 26 28  1  0
 26 27  1  0
 27 48  1  0
 27 49  1  0
 27 50  1  0
 28 29  2  0
 30 52  1  1
M  END
>  <i_m_ct_stereo_status>  (50) 
1

>  <s_m_source_file>  (50) 
/var/tmp/pbs.5076255.sched01/tmpsofmo5yl/0au1p7r3z.sdf

>  <i_m_source_file_index>  (50) 
22

>  <i_lp_mmshare_version>  (50) 
48012

>  <i_f3d_flags>  (50) 
0

>  <s_epik_input>  (50) 
W0NIM11PQyg9TylbQ0gyXW4oYzFbT0hdKWMoW09IXSljKGMxMilbQ0BASF0zW0NAQEhdNFtDQEhdKFtDQEhdMltDSF09W0NIXTMpW0NASF01YzZjKFtDQEBIXTRbQ0hdPVtDSF01KWMoW09IXSluKFtDSDNdKWM2W09IXQ==

>  <s_epik_cmdline>  (50) 
J2VwaWtfcHl0aG9uJywgJy1waHQnLCAnMi4wJywgJy1waCcsICc3LjAnLCAnLXRuJywgJzgnLCAnLW1hJywgJzIwMCcsICctaW1hZScsICc8aW5maWxlLm1hZT4nLCAnLW9tYWUnLCAnPG91dGZpbGUubWFlPic=

>  <r_lp_tautomer_probability>  (50) 
1

>  <r_epik_Ionization_Penalty>  (50) 
3.88762e-10

>  <r_epik_Ionization_Penalty_Charging>  (50) 
0

>  <r_epik_Ionization_Penalty_Neutral>  (50) 
3.88762e-10

>  <r_epik_State_Penalty>  (50) 
-0

>  <r_epik_Charging_Adjusted_Penalty>  (50) 
0

>  <i_epik_Tot_Q>  (50) 
0

>  <i_epik_Tot_abs_Q>  (50) 
0

>  <s_epik_Chemistry_Notes>  (50) 
This compound has an ester and may undergo hydrolysis at high or low pH.

>  <s_lp_Force_Field>  (50) 
OPLS3e

>  <r_lp_Energy>  (50) 
52.9904

>  <b_lp_Chiralities_Consistent>  (50) 
1

>  <s_lp_Variant>  (50) 
17:0-1

>  <s_i_glide_gridfile>  (50) 
pfpi4k_grid

>  <i_i_glide_lignum>  (50) 
22

>  <i_i_glide_rotatable_bonds>  (50) 
3

>  <r_i_docking_score>  (50) 
-2.85228

>  <r_i_glide_ligand_efficiency>  (50) 
-0.0950759

>  <r_i_glide_ligand_efficiency_sa>  (50) 
-0.295423

>  <r_i_glide_ligand_efficiency_ln>  (50) 
-0.648068

>  <r_i_glide_gscore>  (50) 
-2.85228

>  <r_i_glide_lipo>  (50) 
-0.590446

>  <r_i_glide_hbond>  (50) 
-0.15476

>  <r_i_glide_metal>  (50) 
-0

>  <r_i_glide_rewards>  (50) 
-0.629631

>  <r_i_glide_evdw>  (50) 
-25.4925

>  <r_i_glide_ecoul>  (50) 
-2.63031

>  <r_i_glide_erotb>  (50) 
0.233905

>  <r_i_glide_esite>  (50) 
-0.0421757

>  <r_i_glide_emodel>  (50) 
-33.5433

>  <r_i_glide_energy>  (50) 
-28.1228

>  <r_i_glide_einternal>  (50) 
0.925952

>  <r_i_glide_intrahb_reward>  (50) 
-0

>  <i_i_glide_confnum>  (50) 
2

>  <i_i_glide_posenum>  (50) 
20

>  <r_i_glide_eff_state_penalty>  (50) 
0

>  <ligand_id>  (50) 
17

>  <original_smiles>  (50) 
COC(=O)Cn1c(O)c2c(c1O)C1C=CC2C2C3C=CC(c4c3c(O)n(C)c4O)C12

>  <smiles>  (50) 
[H]C1=C([H])C2([H])C3([H])C(=O)N(C([H])([H])[H])C(=O)C3([H])C1([H])C1([H])C3([H])C([H])=C([H])C([H])(C4([H])C(=O)N(C([H])([H])C(=O)OC([H])([H])[H])C(=O)C43[H])C21[H]

$$$$
17:0:1
     RDKit          3D

 52 57  0  0  1  0  0  0  0  0999 V2000
    2.5401  -11.0265    3.1666 C   0  0  0  0  0  0  0  0  0  0  0  0
    2.7024   -9.6554    3.5007 O   0  0  0  0  0  0  0  0  0  0  0  0
    2.9261   -8.7582    2.5284 C   0  0  0  0  0  0  0  0  0  0  0  0
    3.0183   -9.0120    1.3256 O   0  0  0  0  0  0  0  0  0  0  0  0
    3.0522   -7.3279    3.0826 C   0  0  0  0  0  0  0  0  0  0  0  0
    3.4239   -6.3511    2.0505 N   0  0  0  0  0  0  0  0  0  0  0  0
    2.5455   -5.7187    1.2609 C   0  0  0  0  0  0  0  0  0  0  0  0
    1.3204   -5.8553    1.2854 O   0  0  0  0  0  0  0  0  0  0  0  0
    3.2567   -4.7856    0.2838 C   0  0  2  0  0  0  0  0  0  0  0  0
    4.7483   -4.9751    0.6444 C   0  0  2  0  0  0  0  0  0  0  0  0
    4.6903   -5.9849    1.7915 C   0  0  0  0  0  0  0  0  0  0  0  0
    5.6936   -6.3869    2.3777 O   0  0  0  0  0  0  0  0  0  0  0  0
    5.4029   -3.5813    0.9456 C   0  0  1  0  0  0  0  0  0  0  0  0
    5.1504   -2.7814   -0.3300 C   0  0  0  0  0  0  0  0  0  0  0  0
    3.8534   -2.6207   -0.6464 C   0  0  0  0  0  0  0  0  0  0  0  0
    2.8718   -3.2677    0.3242 C   0  0  2  0  0  0  0  0  0  0  0  0
    3.1286   -2.6983    1.7635 C   0  0  2  0  0  0  0  0  0  0  0  0
    2.6999   -1.2072    2.0203 C   0  0  2  0  0  0  0  0  0  0  0  0
    3.6612   -0.2889    1.2755 C   0  0  0  0  0  0  0  0  0  0  0  0
    4.9572   -0.4503    1.5879 C   0  0  0  0  0  0  0  0  0  0  0  0
    5.2292   -1.5155    2.6411 C   0  0  1  0  0  0  0  0  0  0  0  0
    4.4258   -1.0161    3.8915 C   0  0  1  0  0  0  0  0  0  0  0  0
    2.9319   -0.8348    3.5258 C   0  0  2  0  0  0  0  0  0  0  0  0
    2.2207   -1.7049    4.5619 C   0  0  0  0  0  0  0  0  0  0  0  0
    0.9970   -1.8335    4.6016 O   0  0  0  0  0  0  0  0  0  0  0  0
    3.1017   -2.2824    5.3916 N   0  0  0  0  0  0  0  0  0  0  0  0
    2.7229   -3.1501    6.5093 C   0  0  0  0  0  0  0  0  0  0  0  0
    4.3693   -1.9642    5.0882 C   0  0  0  0  0  0  0  0  0  0  0  0
    5.3763   -2.3571    5.6742 O   0  0  0  0  0  0  0  0  0  0  0  0
    4.6477   -2.8845    2.1370 C   0  0  2  0  0  0  0  0  0  0  0  0
    2.3902  -11.6192    4.0699 H   0  0  0  0  0  0  0  0  0  0  0  0
    3.4185  -11.4187    2.6496 H   0  0  0  0  0  0  0  0  0  0  0  0
    1.6675  -11.1688    2.5271 H   0  0  0  0  0  0  0  0  0  0  0  0
    2.1016   -7.0357    3.5309 H   0  0  0  0  0  0  0  0  0  0  0  0
    3.7915   -7.3201    3.8865 H   0  0  0  0  0  0  0  0  0  0  0  0
    3.0714   -5.1617   -0.7133 H   0  0  0  0  0  0  0  0  0  0  0  0
    5.2758   -5.4492   -0.1890 H   0  0  0  0  0  0  0  0  0  0  0  0
    6.4696   -3.6749    1.1358 H   0  0  0  0  0  0  0  0  0  0  0  0
    5.9728   -2.3844   -0.9042 H   0  0  0  0  0  0  0  0  0  0  0  0
    3.4906   -2.0775   -1.5067 H   0  0  0  0  0  0  0  0  0  0  0  0
    1.8513   -3.1025   -0.0114 H   0  0  0  0  0  0  0  0  0  0  0  0
    2.5313   -3.3078    2.4412 H   0  0  0  0  0  0  0  0  0  0  0  0
    1.6741   -1.0184    1.7139 H   0  0  0  0  0  0  0  0  0  0  0  0
    3.2917    0.4194    0.5528 H   0  0  0  0  0  0  0  0  0  0  0  0
    5.7670    0.1143    1.1507 H   0  0  0  0  0  0  0  0  0  0  0  0
    6.2885   -1.5745    2.8535 H   0  0  0  0  0  0  0  0  0  0  0  0
    2.6300    0.2021    3.6940 H   0  0  0  0  0  0  0  0  0  0  0  0
    3.4967   -3.8878    6.7204 H   0  0  0  0  0  0  0  0  0  0  0  0
    1.8037   -3.6941    6.2938 H   0  0  0  0  0  0  0  0  0  0  0  0
    2.5634   -2.5611    7.4129 H   0  0  0  0  0  0  0  0  0  0  0  0
    4.8463   -0.0683    4.2384 H   0  0  0  0  0  0  0  0  0  0  0  0
    4.7132   -3.5738    2.9784 H   0  0  0  0  0  0  0  0  0  0  0  0
  1  2  1  0
  1 31  1  0
  1 32  1  0
  1 33  1  0
  2  3  1  0
  3  4  2  0
  3  5  1  0
  5 34  1  0
  5 35  1  0
  5  6  1  0
  6 11  1  0
  6  7  1  0
  7  8  2  0
  7  9  1  0
  9 16  1  0
  9 36  1  6
  9 10  1  0
 10 13  1  0
 10 37  1  6
 10 11  1  0
 11 12  2  0
 13 30  1  0
 13 14  1  0
 13 38  1  1
 14 15  2  0
 14 39  1  0
 15 16  1  0
 15 40  1  0
 16 17  1  0
 16 41  1  6
 17 30  1  0
 17 18  1  0
 17 42  1  1
 18 19  1  0
 18 43  1  6
 18 23  1  0
 19 20  2  0
 19 44  1  0
 20 21  1  0
 20 45  1  0
 21 30  1  0
 21 46  1  1
 21 22  1  0
 22 23  1  0
 22 51  1  1
 22 28  1  0
 23 24  1  0
 23 47  1  6
 24 25  2  0
 24 26  1  0
 26 28  1  0
 26 27  1  0
 27 48  1  0
 27 49  1  0
 27 50  1  0
 28 29  2  0
 30 52  1  1
M  END
>  <i_m_ct_stereo_status>  (51) 
1

>  <s_m_source_file>  (51) 
/var/tmp/pbs.5076255.sched01/tmpsofmo5yl/0au1p7r3z.sdf

>  <i_m_source_file_index>  (51) 
22

>  <i_lp_mmshare_version>  (51) 
48012

>  <i_f3d_flags>  (51) 
0

>  <s_epik_input>  (51) 
W0NIM11PQyg9TylbQ0gyXW4oYzFbT0hdKWMoW09IXSljKGMxMilbQ0BASF0zW0NAQEhdNFtDQEhdKFtDQEhdMltDSF09W0NIXTMpW0NASF01YzZjKFtDQEBIXTRbQ0hdPVtDSF01KWMoW09IXSluKFtDSDNdKWM2W09IXQ==

>  <s_epik_cmdline>  (51) 
J2VwaWtfcHl0aG9uJywgJy1waHQnLCAnMi4wJywgJy1waCcsICc3LjAnLCAnLXRuJywgJzgnLCAnLW1hJywgJzIwMCcsICctaW1hZScsICc8aW5maWxlLm1hZT4nLCAnLW9tYWUnLCAnPG91dGZpbGUubWFlPic=

>  <r_lp_tautomer_probability>  (51) 
1

>  <r_epik_Ionization_Penalty>  (51) 
3.88762e-10

>  <r_epik_Ionization_Penalty_Charging>  (51) 
0

>  <r_epik_Ionization_Penalty_Neutral>  (51) 
3.88762e-10

>  <r_epik_State_Penalty>  (51) 
-0

>  <r_epik_Charging_Adjusted_Penalty>  (51) 
0

>  <i_epik_Tot_Q>  (51) 
0

>  <i_epik_Tot_abs_Q>  (51) 
0

>  <s_epik_Chemistry_Notes>  (51) 
This compound has an ester and may undergo hydrolysis at high or low pH.

>  <s_lp_Force_Field>  (51) 
OPLS3e

>  <r_lp_Energy>  (51) 
52.9904

>  <b_lp_Chiralities_Consistent>  (51) 
1

>  <s_lp_Variant>  (51) 
17:0-1

>  <s_i_glide_gridfile>  (51) 
pfpi4k_grid

>  <i_i_glide_lignum>  (51) 
22

>  <i_i_glide_rotatable_bonds>  (51) 
3

>  <r_i_docking_score>  (51) 
-2.8119

>  <r_i_glide_ligand_efficiency>  (51) 
-0.09373

>  <r_i_glide_ligand_efficiency_sa>  (51) 
-0.291241

>  <r_i_glide_ligand_efficiency_ln>  (51) 
-0.638895

>  <r_i_glide_gscore>  (51) 
-2.8119

>  <r_i_glide_lipo>  (51) 
-0.428488

>  <r_i_glide_hbond>  (51) 
-0.146187

>  <r_i_glide_metal>  (51) 
-0

>  <r_i_glide_rewards>  (51) 
-0.698371

>  <r_i_glide_evdw>  (51) 
-23.6306

>  <r_i_glide_ecoul>  (51) 
-3.73124

>  <r_i_glide_erotb>  (51) 
0.233905

>  <r_i_glide_esite>  (51) 
-0.0315467

>  <r_i_glide_emodel>  (51) 
-33.0475

>  <r_i_glide_energy>  (51) 
-27.3618

>  <r_i_glide_einternal>  (51) 
0.269648

>  <r_i_glide_intrahb_reward>  (51) 
-0

>  <i_i_glide_confnum>  (51) 
1

>  <i_i_glide_posenum>  (51) 
5

>  <r_i_glide_eff_state_penalty>  (51) 
0

>  <ligand_id>  (51) 
17

>  <original_smiles>  (51) 
COC(=O)Cn1c(O)c2c(c1O)C1C=CC2C2C3C=CC(c4c3c(O)n(C)c4O)C12

>  <smiles>  (51) 
[H]C1=C([H])C2([H])C3([H])C(=O)N(C([H])([H])[H])C(=O)C3([H])C1([H])C1([H])C3([H])C([H])=C([H])C([H])(C4([H])C(=O)N(C([H])([H])C(=O)OC([H])([H])[H])C(=O)C43[H])C21[H]

$$$$
17:0:2
     RDKit          3D

 52 57  0  0  1  0  0  0  0  0999 V2000
    1.5564  -10.3360    3.9685 C   0  0  0  0  0  0  0  0  0  0  0  0
    1.8488   -8.9453    4.0221 O   0  0  0  0  0  0  0  0  0  0  0  0
    2.5891   -8.3851    3.0514 C   0  0  0  0  0  0  0  0  0  0  0  0
    3.0647   -8.9765    2.0807 O   0  0  0  0  0  0  0  0  0  0  0  0
    2.7894   -6.8775    3.2743 C   0  0  0  0  0  0  0  0  0  0  0  0
    3.5692   -6.2434    2.2033 N   0  0  0  0  0  0  0  0  0  0  0  0
    3.0437   -5.8253    1.0415 C   0  0  0  0  0  0  0  0  0  0  0  0
    1.8534   -5.8744    0.7216 O   0  0  0  0  0  0  0  0  0  0  0  0
    4.1304   -5.2455    0.1340 C   0  0  2  0  0  0  0  0  0  0  0  0
    5.4149   -5.3614    1.0000 C   0  0  2  0  0  0  0  0  0  0  0  0
    4.8886   -6.0033    2.2849 C   0  0  0  0  0  0  0  0  0  0  0  0
    5.6112   -6.2467    3.2486 O   0  0  0  0  0  0  0  0  0  0  0  0
    6.1033   -3.9572    1.1271 C   0  0  1  0  0  0  0  0  0  0  0  0
    6.3464   -3.5388   -0.3197 C   0  0  0  0  0  0  0  0  0  0  0  0
    5.2373   -3.4441   -1.0730 C   0  0  0  0  0  0  0  0  0  0  0  0
    3.9376   -3.7670   -0.3431 C   0  0  2  0  0  0  0  0  0  0  0  0
    3.8106   -2.8205    0.9091 C   0  0  2  0  0  0  0  0  0  0  0  0
    3.5012   -1.3063    0.6236 C   0  0  2  0  0  0  0  0  0  0  0  0
    4.7375   -0.6683    0.0112 C   0  0  0  0  0  0  0  0  0  0  0  0
    5.8462   -0.7573    0.7643 C   0  0  0  0  0  0  0  0  0  0  0  0
    5.6685   -1.4893    2.0857 C   0  0  1  0  0  0  0  0  0  0  0  0
    4.5906   -0.6362    2.8321 C   0  0  1  0  0  0  0  0  0  0  0  0
    3.3057   -0.5239    1.9643 C   0  0  2  0  0  0  0  0  0  0  0  0
    2.2159   -1.0436    2.9044 C   0  0  0  0  0  0  0  0  0  0  0  0
    1.0317   -1.1227    2.5816 O   0  0  0  0  0  0  0  0  0  0  0  0
    2.7329   -1.3906    4.0935 N   0  0  0  0  0  0  0  0  0  0  0  0
    1.9342   -1.8976    5.2079 C   0  0  0  0  0  0  0  0  0  0  0  0
    4.0612   -1.2074    4.1470 C   0  0  0  0  0  0  0  0  0  0  0  0
    4.7934   -1.4503    5.1040 O   0  0  0  0  0  0  0  0  0  0  0  0
    5.1110   -2.9329    1.7890 C   0  0  2  0  0  0  0  0  0  0  0  0
    0.9628  -10.6288    4.8368 H   0  0  0  0  0  0  0  0  0  0  0  0
    2.4710  -10.9331    3.9717 H   0  0  0  0  0  0  0  0  0  0  0  0
    0.9835  -10.5839    3.0722 H   0  0  0  0  0  0  0  0  0  0  0  0
    1.8146   -6.3945    3.3447 H   0  0  0  0  0  0  0  0  0  0  0  0
    3.2818   -6.7264    4.2367 H   0  0  0  0  0  0  0  0  0  0  0  0
    4.2263   -5.9101   -0.7203 H   0  0  0  0  0  0  0  0  0  0  0  0
    6.1123   -6.0643    0.5383 H   0  0  0  0  0  0  0  0  0  0  0  0
    7.0449   -4.0240    1.6710 H   0  0  0  0  0  0  0  0  0  0  0  0
    7.3477   -3.3465   -0.6775 H   0  0  0  0  0  0  0  0  0  0  0  0
    5.2259   -3.1632   -2.1165 H   0  0  0  0  0  0  0  0  0  0  0  0
    3.0853   -3.6757   -1.0165 H   0  0  0  0  0  0  0  0  0  0  0  0
    2.9660   -3.1947    1.4876 H   0  0  0  0  0  0  0  0  0  0  0  0
    2.6389   -1.1841   -0.0261 H   0  0  0  0  0  0  0  0  0  0  0  0
    4.6812   -0.1934   -0.9557 H   0  0  0  0  0  0  0  0  0  0  0  0
    6.8113   -0.3550    0.4955 H   0  0  0  0  0  0  0  0  0  0  0  0
    6.6066   -1.5085    2.6328 H   0  0  0  0  0  0  0  0  0  0  0  0
    3.0937    0.5252    1.7488 H   0  0  0  0  0  0  0  0  0  0  0  0
    2.5125   -2.5681    5.8433 H   0  0  0  0  0  0  0  0  0  0  0  0
    1.0653   -2.4537    4.8544 H   0  0  0  0  0  0  0  0  0  0  0  0
    1.5770   -1.0735    5.8257 H   0  0  0  0  0  0  0  0  0  0  0  0
    4.9896    0.3568    3.0403 H   0  0  0  0  0  0  0  0  0  0  0  0
    4.8357   -3.3593    2.7532 H   0  0  0  0  0  0  0  0  0  0  0  0
  1  2  1  0
  1 31  1  0
  1 32  1  0
  1 33  1  0
  2  3  1  0
  3  4  2  0
  3  5  1  0
  5 34  1  0
  5 35  1  0
  5  6  1  0
  6 11  1  0
  6  7  1  0
  7  8  2  0
  7  9  1  0
  9 16  1  0
  9 36  1  6
  9 10  1  0
 10 13  1  0
 10 37  1  6
 10 11  1  0
 11 12  2  0
 13 30  1  0
 13 14  1  0
 13 38  1  1
 14 15  2  0
 14 39  1  0
 15 16  1  0
 15 40  1  0
 16 17  1  0
 16 41  1  6
 17 30  1  0
 17 18  1  0
 17 42  1  1
 18 19  1  0
 18 43  1  6
 18 23  1  0
 19 20  2  0
 19 44  1  0
 20 21  1  0
 20 45  1  0
 21 30  1  0
 21 46  1  1
 21 22  1  0
 22 23  1  0
 22 51  1  1
 22 28  1  0
 23 24  1  0
 23 47  1  6
 24 25  2  0
 24 26  1  0
 26 28  1  0
 26 27  1  0
 27 48  1  0
 27 49  1  0
 27 50  1  0
 28 29  2  0
 30 52  1  1
M  END
>  <i_m_ct_stereo_status>  (52) 
1

>  <s_m_source_file>  (52) 
/var/tmp/pbs.5076255.sched01/tmpsofmo5yl/0au1p7r3z.sdf

>  <i_m_source_file_index>  (52) 
22

>  <i_lp_mmshare_version>  (52) 
48012

>  <i_f3d_flags>  (52) 
0

>  <s_epik_input>  (52) 
W0NIM11PQyg9TylbQ0gyXW4oYzFbT0hdKWMoW09IXSljKGMxMilbQ0BASF0zW0NAQEhdNFtDQEhdKFtDQEhdMltDSF09W0NIXTMpW0NASF01YzZjKFtDQEBIXTRbQ0hdPVtDSF01KWMoW09IXSluKFtDSDNdKWM2W09IXQ==

>  <s_epik_cmdline>  (52) 
J2VwaWtfcHl0aG9uJywgJy1waHQnLCAnMi4wJywgJy1waCcsICc3LjAnLCAnLXRuJywgJzgnLCAnLW1hJywgJzIwMCcsICctaW1hZScsICc8aW5maWxlLm1hZT4nLCAnLW9tYWUnLCAnPG91dGZpbGUubWFlPic=

>  <r_lp_tautomer_probability>  (52) 
1

>  <r_epik_Ionization_Penalty>  (52) 
3.88762e-10

>  <r_epik_Ionization_Penalty_Charging>  (52) 
0

>  <r_epik_Ionization_Penalty_Neutral>  (52) 
3.88762e-10

>  <r_epik_State_Penalty>  (52) 
-0

>  <r_epik_Charging_Adjusted_Penalty>  (52) 
0

>  <i_epik_Tot_Q>  (52) 
0

>  <i_epik_Tot_abs_Q>  (52) 
0

>  <s_epik_Chemistry_Notes>  (52) 
This compound has an ester and may undergo hydrolysis at high or low pH.

>  <s_lp_Force_Field>  (52) 
OPLS3e

>  <r_lp_Energy>  (52) 
52.9904

>  <b_lp_Chiralities_Consistent>  (52) 
1

>  <s_lp_Variant>  (52) 
17:0-1

>  <s_i_glide_gridfile>  (52) 
pfpi4k_grid

>  <i_i_glide_lignum>  (52) 
22

>  <i_i_glide_rotatable_bonds>  (52) 
3

>  <r_i_docking_score>  (52) 
-2.69762

>  <r_i_glide_ligand_efficiency>  (52) 
-0.0899205

>  <r_i_glide_ligand_efficiency_sa>  (52) 
-0.279404

>  <r_i_glide_ligand_efficiency_ln>  (52) 
-0.612928

>  <r_i_glide_gscore>  (52) 
-2.69762

>  <r_i_glide_lipo>  (52) 
-0.719904

>  <r_i_glide_hbond>  (52) 
-0.0519835

>  <r_i_glide_metal>  (52) 
-0

>  <r_i_glide_rewards>  (52) 
-0.633769

>  <r_i_glide_evdw>  (52) 
-25.5456

>  <r_i_glide_ecoul>  (52) 
-1.51212

>  <r_i_glide_erotb>  (52) 
0.233905

>  <r_i_glide_esite>  (52) 
-0.021768

>  <r_i_glide_emodel>  (52) 
-32.4335

>  <r_i_glide_energy>  (52) 
-27.0577

>  <r_i_glide_einternal>  (52) 
0.413313

>  <r_i_glide_intrahb_reward>  (52) 
-0

>  <i_i_glide_confnum>  (52) 
1

>  <i_i_glide_posenum>  (52) 
27

>  <r_i_glide_eff_state_penalty>  (52) 
0

>  <ligand_id>  (52) 
17

>  <original_smiles>  (52) 
COC(=O)Cn1c(O)c2c(c1O)C1C=CC2C2C3C=CC(c4c3c(O)n(C)c4O)C12

>  <smiles>  (52) 
[H]C1=C([H])C2([H])C3([H])C(=O)N(C([H])([H])[H])C(=O)C3([H])C1([H])C1([H])C3([H])C([H])=C([H])C([H])(C4([H])C(=O)N(C([H])([H])C(=O)OC([H])([H])[H])C(=O)C43[H])C21[H]

$$$$
17:1:0
     RDKit          3D

 52 57  0  0  1  0  0  0  0  0999 V2000
   -3.2258    3.2115    2.6448 C   0  0  0  0  0  0  0  0  0  0  0  0
   -2.0468    2.6739    3.2207 O   0  0  0  0  0  0  0  0  0  0  0  0
   -1.3470    3.4083    4.1004 C   0  0  0  0  0  0  0  0  0  0  0  0
   -1.6517    4.5406    4.4642 O   0  0  0  0  0  0  0  0  0  0  0  0
   -0.1170    2.7011    4.6894 C   0  0  0  0  0  0  0  0  0  0  0  0
    0.4792    1.7134    3.7770 N   0  0  0  0  0  0  0  0  0  0  0  0
    0.0548    0.4405    3.6755 C   0  0  0  0  0  0  0  0  0  0  0  0
   -0.8599   -0.0663    4.3266 O   0  0  0  0  0  0  0  0  0  0  0  0
    0.8705   -0.3341    2.6373 C   0  0  1  0  0  0  0  0  0  0  0  0
    1.9045    0.7242    2.1528 C   0  0  1  0  0  0  0  0  0  0  0  0
    1.5365    1.9598    2.9831 C   0  0  0  0  0  0  0  0  0  0  0  0
    2.1614    3.0187    2.9278 O   0  0  0  0  0  0  0  0  0  0  0  0
    3.3583    0.1850    2.3856 C   0  0  1  0  0  0  0  0  0  0  0  0
    3.4808   -0.2043    3.8576 C   0  0  0  0  0  0  0  0  0  0  0  0
    2.5873   -1.1133    4.2814 C   0  0  0  0  0  0  0  0  0  0  0  0
    1.6112   -1.5917    3.2104 C   0  0  2  0  0  0  0  0  0  0  0  0
    2.4223   -2.1754    2.0040 C   0  0  2  0  0  0  0  0  0  0  0  0
    3.1394   -3.5564    2.2202 C   0  0  2  0  0  0  0  0  0  0  0  0
    4.3263   -3.3393    3.1490 C   0  0  0  0  0  0  0  0  0  0  0  0
    5.2156   -2.4249    2.7185 C   0  0  0  0  0  0  0  0  0  0  0  0
    4.8793   -1.7763    1.3829 C   0  0  1  0  0  0  0  0  0  0  0  0
    4.8243   -2.9835    0.3868 C   0  0  1  0  0  0  0  0  0  0  0  0
    3.7994   -4.0359    0.8854 C   0  0  2  0  0  0  0  0  0  0  0  0
    2.8574   -4.1871   -0.3135 C   0  0  0  0  0  0  0  0  0  0  0  0
    1.8792   -4.9408   -0.2958 O   0  0  0  0  0  0  0  0  0  0  0  0
    3.2498   -3.4061   -1.3318 N   0  0  0  0  0  0  0  0  0  0  0  0
    2.5828   -3.3512   -2.6365 C   0  0  0  0  0  0  0  0  0  0  0  0
    4.3383   -2.6765   -1.0318 C   0  0  0  0  0  0  0  0  0  0  0  0
    4.9123   -1.8746   -1.7692 O   0  0  0  0  0  0  0  0  0  0  0  0
    3.4669   -1.1061    1.5039 C   0  0  2  0  0  0  0  0  0  0  0  0
   -3.6366    2.5120    1.9223 H   0  0  0  0  0  0  0  0  0  0  0  0
   -3.0276    4.1521    2.1257 H   0  0  0  0  0  0  0  0  0  0  0  0
   -3.9846    3.3778    3.4106 H   0  0  0  0  0  0  0  0  0  0  0  0
    0.6216    3.4651    4.9443 H   0  0  0  0  0  0  0  0  0  0  0  0
   -0.4002    2.2236    5.6316 H   0  0  0  0  0  0  0  0  0  0  0  0
    0.2145   -0.6149    1.8140 H   0  0  0  0  0  0  0  0  0  0  0  0
    1.7455    0.9532    1.0996 H   0  0  0  0  0  0  0  0  0  0  0  0
    4.1078    0.9269    2.1180 H   0  0  0  0  0  0  0  0  0  0  0  0
    4.2562    0.2303    4.4716 H   0  0  0  0  0  0  0  0  0  0  0  0
    2.5432   -1.5142    5.2849 H   0  0  0  0  0  0  0  0  0  0  0  0
    0.9109   -2.3192    3.6237 H   0  0  0  0  0  0  0  0  0  0  0  0
    1.6913   -2.3057    1.2060 H   0  0  0  0  0  0  0  0  0  0  0  0
    2.4631   -4.3095    2.6262 H   0  0  0  0  0  0  0  0  0  0  0  0
    4.4102   -3.8967    4.0706 H   0  0  0  0  0  0  0  0  0  0  0  0
    6.1140   -2.1422    3.2439 H   0  0  0  0  0  0  0  0  0  0  0  0
    5.6472   -1.0563    1.0991 H   0  0  0  0  0  0  0  0  0  0  0  0
    4.2975   -4.9924    1.0510 H   0  0  0  0  0  0  0  0  0  0  0  0
    2.6547   -2.3622   -3.0899 H   0  0  0  0  0  0  0  0  0  0  0  0
    1.5232   -3.5951   -2.5533 H   0  0  0  0  0  0  0  0  0  0  0  0
    3.0406   -4.0383   -3.3487 H   0  0  0  0  0  0  0  0  0  0  0  0
    5.8166   -3.4325    0.3100 H   0  0  0  0  0  0  0  0  0  0  0  0
    3.1695   -0.7920    0.5011 H   0  0  0  0  0  0  0  0  0  0  0  0
  1  2  1  0
  1 31  1  0
  1 32  1  0
  1 33  1  0
  2  3  1  0
  3  4  2  0
  3  5  1  0
  5 34  1  0
  5 35  1  0
  5  6  1  0
  6 11  1  0
  6  7  1  0
  7  8  2  0
  7  9  1  0
  9 16  1  0
  9 36  1  6
  9 10  1  0
 10 13  1  0
 10 37  1  6
 10 11  1  0
 11 12  2  0
 13 30  1  0
 13 14  1  0
 13 38  1  6
 14 15  2  0
 14 39  1  0
 15 16  1  0
 15 40  1  0
 16 17  1  0
 16 41  1  1
 17 30  1  0
 17 18  1  0
 17 42  1  6
 18 19  1  0
 18 43  1  1
 18 23  1  0
 19 20  2  0
 19 44  1  0
 20 21  1  0
 20 45  1  0
 21 30  1  0
 21 46  1  6
 21 22  1  0
 22 23  1  0
 22 51  1  6
 22 28  1  0
 23 24  1  0
 23 47  1  1
 24 25  2  0
 24 26  1  0
 26 28  1  0
 26 27  1  0
 27 48  1  0
 27 49  1  0
 27 50  1  0
 28 29  2  0
 30 52  1  6
M  END
>  <i_m_ct_stereo_status>  (53) 
1

>  <s_m_source_file>  (53) 
/var/tmp/pbs.5076255.sched01/tmpsofmo5yl/0au1p7r3z.sdf

>  <i_m_source_file_index>  (53) 
23

>  <i_lp_mmshare_version>  (53) 
48012

>  <i_f3d_flags>  (53) 
0

>  <s_epik_input>  (53) 
W0NIM11PQyg9TylbQ0gyXW4oYzFbT0hdKWMoW09IXSljKGMxMilbQ0BASF0zW0NAQEhdNFtDQEhdKFtDQEhdMltDSF09W0NIXTMpW0NASF01YzZjKFtDQEBIXTRbQ0hdPVtDSF01KWMoW09IXSluKFtDSDNdKWM2W09IXQ==

>  <s_epik_cmdline>  (53) 
J2VwaWtfcHl0aG9uJywgJy1waHQnLCAnMi4wJywgJy1waCcsICc3LjAnLCAnLXRuJywgJzgnLCAnLW1hJywgJzIwMCcsICctaW1hZScsICc8aW5maWxlLm1hZT4nLCAnLW9tYWUnLCAnPG91dGZpbGUubWFlPic=

>  <r_lp_tautomer_probability>  (53) 
1

>  <r_epik_Ionization_Penalty>  (53) 
3.88762e-10

>  <r_epik_Ionization_Penalty_Charging>  (53) 
0

>  <r_epik_Ionization_Penalty_Neutral>  (53) 
3.88762e-10

>  <r_epik_State_Penalty>  (53) 
-0

>  <r_epik_Charging_Adjusted_Penalty>  (53) 
0

>  <i_epik_Tot_Q>  (53) 
0

>  <i_epik_Tot_abs_Q>  (53) 
0

>  <s_epik_Chemistry_Notes>  (53) 
This compound has an ester and may undergo hydrolysis at high or low pH.

>  <s_lp_Force_Field>  (53) 
OPLS3e

>  <r_lp_Energy>  (53) 
53.9622

>  <b_lp_Chiralities_Consistent>  (53) 
1

>  <s_lp_Variant>  (53) 
17:0-2

>  <s_i_glide_gridfile>  (53) 
pfpi4k_grid

>  <i_i_glide_lignum>  (53) 
23

>  <i_i_glide_rotatable_bonds>  (53) 
3

>  <r_i_docking_score>  (53) 
-3.21361

>  <r_i_glide_ligand_efficiency>  (53) 
-0.10712

>  <r_i_glide_ligand_efficiency_sa>  (53) 
-0.332848

>  <r_i_glide_ligand_efficiency_ln>  (53) 
-0.730168

>  <r_i_glide_gscore>  (53) 
-3.21361

>  <r_i_glide_lipo>  (53) 
-0.283582

>  <r_i_glide_hbond>  (53) 
-0.133023

>  <r_i_glide_metal>  (53) 
-0

>  <r_i_glide_rewards>  (53) 
-0.727828

>  <r_i_glide_evdw>  (53) 
-28.7219

>  <r_i_glide_ecoul>  (53) 
-4.60541

>  <r_i_glide_erotb>  (53) 
0.233905

>  <r_i_glide_esite>  (53) 
-0.176179

>  <r_i_glide_emodel>  (53) 
-40.7165

>  <r_i_glide_energy>  (53) 
-33.3273

>  <r_i_glide_einternal>  (53) 
0.879512

>  <r_i_glide_intrahb_reward>  (53) 
-0

>  <i_i_glide_confnum>  (53) 
2

>  <i_i_glide_posenum>  (53) 
39

>  <r_i_glide_eff_state_penalty>  (53) 
0

>  <ligand_id>  (53) 
17

>  <original_smiles>  (53) 
COC(=O)Cn1c(O)c2c(c1O)C1C=CC2C2C3C=CC(c4c3c(O)n(C)c4O)C12

>  <smiles>  (53) 
[H]C1=C([H])C2([H])C3([H])C(=O)N(C([H])([H])[H])C(=O)C3([H])C1([H])C1([H])C3([H])C([H])=C([H])C([H])(C4([H])C(=O)N(C([H])([H])C(=O)OC([H])([H])[H])C(=O)C43[H])C21[H]

$$$$
17:1:1
     RDKit          3D

 52 57  0  0  1  0  0  0  0  0999 V2000
   -0.2043    5.0811    3.4056 C   0  0  0  0  0  0  0  0  0  0  0  0
   -1.5050    4.5977    3.7236 O   0  0  0  0  0  0  0  0  0  0  0  0
   -1.6897    3.4407    4.4275 C   0  0  0  0  0  0  0  0  0  0  0  0
   -2.8086    3.0010    4.6964 O   0  0  0  0  0  0  0  0  0  0  0  0
   -0.4265    2.7053    4.9461 C   0  0  0  0  0  0  0  0  0  0  0  0
    0.1900    1.8178    3.9517 N   0  0  0  0  0  0  0  0  0  0  0  0
   -0.2121    0.5648    3.7197 C   0  0  0  0  0  0  0  0  0  0  0  0
   -1.1395   -0.0096    4.3227 O   0  0  0  0  0  0  0  0  0  0  0  0
    0.6188   -0.1188    2.6333 C   0  0  1  0  0  0  0  0  0  0  0  0
    1.6348    1.0077    2.2560 C   0  0  1  0  0  0  0  0  0  0  0  0
    1.2785    2.0921    3.2370 C   0  0  0  0  0  0  0  0  0  0  0  0
    1.9963    3.1208    3.3767 O   0  0  0  0  0  0  0  0  0  0  0  0
    3.1039    0.5058    2.4198 C   0  0  1  0  0  0  0  0  0  0  0  0
    3.2476   -0.0028    3.8551 C   0  0  0  0  0  0  0  0  0  0  0  0
    2.3800   -0.9654    4.2031 C   0  0  0  0  0  0  0  0  0  0  0  0
    1.4161   -1.3840    3.0937 C   0  0  2  0  0  0  0  0  0  0  0  0
    2.2471   -1.8336    1.8422 C   0  0  2  0  0  0  0  0  0  0  0  0
    3.0243   -3.1878    1.9279 C   0  0  2  0  0  0  0  0  0  0  0  0
    4.2030   -3.0064    2.8723 C   0  0  0  0  0  0  0  0  0  0  0  0
    5.0566   -2.0292    2.5255 C   0  0  0  0  0  0  0  0  0  0  0  0
    4.6913   -1.2821    1.2514 C   0  0  1  0  0  0  0  0  0  0  0  0
    4.6775   -2.3859    0.1501 C   0  0  1  0  0  0  0  0  0  0  0  0
    3.6860   -3.5253    0.5566 C   0  0  2  0  0  0  0  0  0  0  0  0
    2.7716   -3.6001   -0.6625 C   0  0  0  0  0  0  0  0  0  0  0  0
    1.8097   -4.3914   -0.7145 O   0  0  0  0  0  0  0  0  0  0  0  0
    3.1401   -2.7403   -1.6084 N   0  0  0  0  0  0  0  0  0  0  0  0
    2.4596   -2.6120   -2.8963 C   0  0  0  0  0  0  0  0  0  0  0  0
    4.1771   -1.9920   -1.2290 C   0  0  0  0  0  0  0  0  0  0  0  0
    4.7198   -1.0896   -1.9000 O   0  0  0  0  0  0  0  0  0  0  0  0
    3.2554   -0.6869    1.4277 C   0  0  2  0  0  0  0  0  0  0  0  0
   -0.2127    6.0131    2.8329 H   0  0  0  0  0  0  0  0  0  0  0  0
    0.2757    4.3278    2.8436 H   0  0  0  0  0  0  0  0  0  0  0  0
    0.3936    5.2286    4.3108 H   0  0  0  0  0  0  0  0  0  0  0  0
    0.2996    3.4212    5.3371 H   0  0  0  0  0  0  0  0  0  0  0  0
   -0.7321    2.1192    5.8135 H   0  0  0  0  0  0  0  0  0  0  0  0
   -0.0372   -0.3120    1.7898 H   0  0  0  0  0  0  0  0  0  0  0  0
    1.4330    1.3502    1.2426 H   0  0  0  0  0  0  0  0  0  0  0  0
    3.7971    1.3065    2.2205 H   0  0  0  0  0  0  0  0  0  0  0  0
    3.9981    0.4153    4.5144 H   0  0  0  0  0  0  0  0  0  0  0  0
    2.3625   -1.4365    5.1740 H   0  0  0  0  0  0  0  0  0  0  0  0
    0.7412   -2.1754    3.4433 H   0  0  0  0  0  0  0  0  0  0  0  0
    1.5186   -1.9299    1.0448 H   0  0  0  0  0  0  0  0  0  0  0  0
    2.3718   -4.0000    2.2652 H   0  0  0  0  0  0  0  0  0  0  0  0
    4.3162   -3.6299    3.7497 H   0  0  0  0  0  0  0  0  0  0  0  0
    5.9394   -1.7658    3.0900 H   0  0  0  0  0  0  0  0  0  0  0  0
    5.4278   -0.5018    1.0290 H   0  0  0  0  0  0  0  0  0  0  0  0
    4.2294   -4.4655    0.6309 H   0  0  0  0  0  0  0  0  0  0  0  0
    2.5026   -1.5833   -3.2627 H   0  0  0  0  0  0  0  0  0  0  0  0
    1.4057   -2.8829   -2.8106 H   0  0  0  0  0  0  0  0  0  0  0  0
    2.9139   -3.2682   -3.6417 H   0  0  0  0  0  0  0  0  0  0  0  0
    5.6775   -2.7977    0.0341 H   0  0  0  0  0  0  0  0  0  0  0  0
    2.9420   -0.2847    0.4647 H   0  0  0  0  0  0  0  0  0  0  0  0
  1  2  1  0
  1 31  1  0
  1 32  1  0
  1 33  1  0
  2  3  1  0
  3  4  2  0
  3  5  1  0
  5 34  1  0
  5 35  1  0
  5  6  1  0
  6 11  1  0
  6  7  1  0
  7  8  2  0
  7  9  1  0
  9 16  1  0
  9 36  1  6
  9 10  1  0
 10 13  1  0
 10 37  1  6
 10 11  1  0
 11 12  2  0
 13 30  1  0
 13 14  1  0
 13 38  1  6
 14 15  2  0
 14 39  1  0
 15 16  1  0
 15 40  1  0
 16 17  1  0
 16 41  1  1
 17 30  1  0
 17 18  1  0
 17 42  1  6
 18 19  1  0
 18 43  1  1
 18 23  1  0
 19 20  2  0
 19 44  1  0
 20 21  1  0
 20 45  1  0
 21 30  1  0
 21 46  1  6
 21 22  1  0
 22 23  1  0
 22 51  1  6
 22 28  1  0
 23 24  1  0
 23 47  1  1
 24 25  2  0
 24 26  1  0
 26 28  1  0
 26 27  1  0
 27 48  1  0
 27 49  1  0
 27 50  1  0
 28 29  2  0
 30 52  1  6
M  END
>  <i_m_ct_stereo_status>  (54) 
1

>  <s_m_source_file>  (54) 
/var/tmp/pbs.5076255.sched01/tmpsofmo5yl/0au1p7r3z.sdf

>  <i_m_source_file_index>  (54) 
23

>  <i_lp_mmshare_version>  (54) 
48012

>  <i_f3d_flags>  (54) 
0

>  <s_epik_input>  (54) 
W0NIM11PQyg9TylbQ0gyXW4oYzFbT0hdKWMoW09IXSljKGMxMilbQ0BASF0zW0NAQEhdNFtDQEhdKFtDQEhdMltDSF09W0NIXTMpW0NASF01YzZjKFtDQEBIXTRbQ0hdPVtDSF01KWMoW09IXSluKFtDSDNdKWM2W09IXQ==

>  <s_epik_cmdline>  (54) 
J2VwaWtfcHl0aG9uJywgJy1waHQnLCAnMi4wJywgJy1waCcsICc3LjAnLCAnLXRuJywgJzgnLCAnLW1hJywgJzIwMCcsICctaW1hZScsICc8aW5maWxlLm1hZT4nLCAnLW9tYWUnLCAnPG91dGZpbGUubWFlPic=

>  <r_lp_tautomer_probability>  (54) 
1

>  <r_epik_Ionization_Penalty>  (54) 
3.88762e-10

>  <r_epik_Ionization_Penalty_Charging>  (54) 
0

>  <r_epik_Ionization_Penalty_Neutral>  (54) 
3.88762e-10

>  <r_epik_State_Penalty>  (54) 
-0

>  <r_epik_Charging_Adjusted_Penalty>  (54) 
0

>  <i_epik_Tot_Q>  (54) 
0

>  <i_epik_Tot_abs_Q>  (54) 
0

>  <s_epik_Chemistry_Notes>  (54) 
This compound has an ester and may undergo hydrolysis at high or low pH.

>  <s_lp_Force_Field>  (54) 
OPLS3e

>  <r_lp_Energy>  (54) 
53.9622

>  <b_lp_Chiralities_Consistent>  (54) 
1

>  <s_lp_Variant>  (54) 
17:0-2

>  <s_i_glide_gridfile>  (54) 
pfpi4k_grid

>  <i_i_glide_lignum>  (54) 
23

>  <i_i_glide_rotatable_bonds>  (54) 
3

>  <r_i_docking_score>  (54) 
-3.12525

>  <r_i_glide_ligand_efficiency>  (54) 
-0.104175

>  <r_i_glide_ligand_efficiency_sa>  (54) 
-0.323696

>  <r_i_glide_ligand_efficiency_ln>  (54) 
-0.71009

>  <r_i_glide_gscore>  (54) 
-3.12525

>  <r_i_glide_lipo>  (54) 
-0.20029

>  <r_i_glide_hbond>  (54) 
-0.161434

>  <r_i_glide_metal>  (54) 
-0

>  <r_i_glide_rewards>  (54) 
-0.610774

>  <r_i_glide_evdw>  (54) 
-30.5285

>  <r_i_glide_ecoul>  (54) 
-4.4085

>  <r_i_glide_erotb>  (54) 
0.233905

>  <r_i_glide_esite>  (54) 
-0.198956

>  <r_i_glide_emodel>  (54) 
-39.1946

>  <r_i_glide_energy>  (54) 
-34.937

>  <r_i_glide_einternal>  (54) 
4.80096

>  <r_i_glide_intrahb_reward>  (54) 
-0

>  <i_i_glide_confnum>  (54) 
2

>  <i_i_glide_posenum>  (54) 
33

>  <r_i_glide_eff_state_penalty>  (54) 
0

>  <ligand_id>  (54) 
17

>  <original_smiles>  (54) 
COC(=O)Cn1c(O)c2c(c1O)C1C=CC2C2C3C=CC(c4c3c(O)n(C)c4O)C12

>  <smiles>  (54) 
[H]C1=C([H])C2([H])C3([H])C(=O)N(C([H])([H])[H])C(=O)C3([H])C1([H])C1([H])C3([H])C([H])=C([H])C([H])(C4([H])C(=O)N(C([H])([H])C(=O)OC([H])([H])[H])C(=O)C43[H])C21[H]

$$$$
17:1:2
     RDKit          3D

 52 57  0  0  1  0  0  0  0  0999 V2000
    2.2566   -2.8368   -3.9037 C   0  0  0  0  0  0  0  0  0  0  0  0
    2.8859   -3.0312   -2.6464 O   0  0  0  0  0  0  0  0  0  0  0  0
    4.2132   -3.2457   -2.5917 C   0  0  0  0  0  0  0  0  0  0  0  0
    4.9617   -3.3184   -3.5640 O   0  0  0  0  0  0  0  0  0  0  0  0
    4.7578   -3.4465   -1.1714 C   0  0  0  0  0  0  0  0  0  0  0  0
    4.0606   -2.6319   -0.1654 N   0  0  0  0  0  0  0  0  0  0  0  0
    4.3709   -1.3589    0.1184 C   0  0  0  0  0  0  0  0  0  0  0  0
    5.2780   -0.7103   -0.4075 O   0  0  0  0  0  0  0  0  0  0  0  0
    3.4570   -0.7930    1.2175 C   0  0  1  0  0  0  0  0  0  0  0  0
    2.5434   -2.0110    1.5602 C   0  0  1  0  0  0  0  0  0  0  0  0
    3.0677   -3.0961    0.6086 C   0  0  0  0  0  0  0  0  0  0  0  0
    2.6119   -4.2415    0.5884 O   0  0  0  0  0  0  0  0  0  0  0  0
    2.6576   -2.3574    3.0866 C   0  0  1  0  0  0  0  0  0  0  0  0
    4.1364   -2.5591    3.4040 C   0  0  0  0  0  0  0  0  0  0  0  0
    4.9230   -1.5140    3.1056 C   0  0  0  0  0  0  0  0  0  0  0  0
    4.1986   -0.3107    2.5122 C   0  0  2  0  0  0  0  0  0  0  0  0
    3.0714    0.1457    3.5019 C   0  0  2  0  0  0  0  0  0  0  0  0
    3.5230    0.8504    4.8327 C   0  0  2  0  0  0  0  0  0  0  0  0
    4.1484   -0.1990    5.7451 C   0  0  0  0  0  0  0  0  0  0  0  0
    3.3527   -1.2428    6.0363 C   0  0  0  0  0  0  0  0  0  0  0  0
    1.9669   -1.1926    5.4011 C   0  0  1  0  0  0  0  0  0  0  0  0
    1.3455    0.1299    5.9659 C   0  0  1  0  0  0  0  0  0  0  0  0
    2.2678    1.3348    5.6355 C   0  0  2  0  0  0  0  0  0  0  0  0
    1.3226    2.2978    4.9167 C   0  0  0  0  0  0  0  0  0  0  0  0
    1.6866    3.3987    4.5029 O   0  0  0  0  0  0  0  0  0  0  0  0
    0.0832    1.7841    4.8356 N   0  0  0  0  0  0  0  0  0  0  0  0
   -1.0486    2.4908    4.2346 C   0  0  0  0  0  0  0  0  0  0  0  0
   -0.0034    0.5630    5.3877 C   0  0  0  0  0  0  0  0  0  0  0  0
   -1.0163   -0.1384    5.4642 O   0  0  0  0  0  0  0  0  0  0  0  0
    2.1420   -1.0828    3.8432 C   0  0  2  0  0  0  0  0  0  0  0  0
    1.1906   -2.6552   -3.7680 H   0  0  0  0  0  0  0  0  0  0  0  0
    2.3698   -3.7149   -4.5405 H   0  0  0  0  0  0  0  0  0  0  0  0
    2.6787   -1.9712   -4.4161 H   0  0  0  0  0  0  0  0  0  0  0  0
    4.7003   -4.5071   -0.9171 H   0  0  0  0  0  0  0  0  0  0  0  0
    5.8185   -3.1864   -1.1710 H   0  0  0  0  0  0  0  0  0  0  0  0
    2.8666    0.0172    0.7900 H   0  0  0  0  0  0  0  0  0  0  0  0
    1.5071   -1.7979    1.2974 H   0  0  0  0  0  0  0  0  0  0  0  0
    2.0812   -3.2458    3.3422 H   0  0  0  0  0  0  0  0  0  0  0  0
    4.4863   -3.4807    3.8481 H   0  0  0  0  0  0  0  0  0  0  0  0
    5.9889   -1.4821    3.2728 H   0  0  0  0  0  0  0  0  0  0  0  0
    4.8995    0.4920    2.2998 H   0  0  0  0  0  0  0  0  0  0  0  0
    2.4811    0.8737    2.9415 H   0  0  0  0  0  0  0  0  0  0  0  0
    4.2168    1.6702    4.6445 H   0  0  0  0  0  0  0  0  0  0  0  0
    5.1573   -0.0780    6.1123 H   0  0  0  0  0  0  0  0  0  0  0  0
    3.6388   -2.0717    6.6675 H   0  0  0  0  0  0  0  0  0  0  0  0
    1.3757   -2.0634    5.6842 H   0  0  0  0  0  0  0  0  0  0  0  0
    2.5922    1.8178    6.5588 H   0  0  0  0  0  0  0  0  0  0  0  0
   -1.7652    1.7969    3.7962 H   0  0  0  0  0  0  0  0  0  0  0  0
   -0.7232    3.1634    3.4400 H   0  0  0  0  0  0  0  0  0  0  0  0
   -1.5707    3.0854    4.9840 H   0  0  0  0  0  0  0  0  0  0  0  0
    1.2274    0.0421    7.0468 H   0  0  0  0  0  0  0  0  0  0  0  0
    1.1534   -0.8838    3.4240 H   0  0  0  0  0  0  0  0  0  0  0  0
  1  2  1  0
  1 31  1  0
  1 32  1  0
  1 33  1  0
  2  3  1  0
  3  4  2  0
  3  5  1  0
  5 34  1  0
  5 35  1  0
  5  6  1  0
  6 11  1  0
  6  7  1  0
  7  8  2  0
  7  9  1  0
  9 16  1  0
  9 36  1  6
  9 10  1  0
 10 13  1  0
 10 37  1  6
 10 11  1  0
 11 12  2  0
 13 30  1  0
 13 14  1  0
 13 38  1  6
 14 15  2  0
 14 39  1  0
 15 16  1  0
 15 40  1  0
 16 17  1  0
 16 41  1  6
 17 30  1  0
 17 18  1  0
 17 42  1  6
 18 19  1  0
 18 43  1  6
 18 23  1  0
 19 20  2  0
 19 44  1  0
 20 21  1  0
 20 45  1  0
 21 30  1  0
 21 46  1  6
 21 22  1  0
 22 23  1  0
 22 51  1  1
 22 28  1  0
 23 24  1  0
 23 47  1  1
 24 25  2  0
 24 26  1  0
 26 28  1  0
 26 27  1  0
 27 48  1  0
 27 49  1  0
 27 50  1  0
 28 29  2  0
 30 52  1  6
M  END
>  <i_m_ct_stereo_status>  (55) 
1

>  <s_m_source_file>  (55) 
/var/tmp/pbs.5076255.sched01/tmpsofmo5yl/0au1p7r3z.sdf

>  <i_m_source_file_index>  (55) 
23

>  <i_lp_mmshare_version>  (55) 
48012

>  <i_f3d_flags>  (55) 
0

>  <s_epik_input>  (55) 
W0NIM11PQyg9TylbQ0gyXW4oYzFbT0hdKWMoW09IXSljKGMxMilbQ0BASF0zW0NAQEhdNFtDQEhdKFtDQEhdMltDSF09W0NIXTMpW0NASF01YzZjKFtDQEBIXTRbQ0hdPVtDSF01KWMoW09IXSluKFtDSDNdKWM2W09IXQ==

>  <s_epik_cmdline>  (55) 
J2VwaWtfcHl0aG9uJywgJy1waHQnLCAnMi4wJywgJy1waCcsICc3LjAnLCAnLXRuJywgJzgnLCAnLW1hJywgJzIwMCcsICctaW1hZScsICc8aW5maWxlLm1hZT4nLCAnLW9tYWUnLCAnPG91dGZpbGUubWFlPic=

>  <r_lp_tautomer_probability>  (55) 
1

>  <r_epik_Ionization_Penalty>  (55) 
3.88762e-10

>  <r_epik_Ionization_Penalty_Charging>  (55) 
0

>  <r_epik_Ionization_Penalty_Neutral>  (55) 
3.88762e-10

>  <r_epik_State_Penalty>  (55) 
-0

>  <r_epik_Charging_Adjusted_Penalty>  (55) 
0

>  <i_epik_Tot_Q>  (55) 
0

>  <i_epik_Tot_abs_Q>  (55) 
0

>  <s_epik_Chemistry_Notes>  (55) 
This compound has an ester and may undergo hydrolysis at high or low pH.

>  <s_lp_Force_Field>  (55) 
OPLS3e

>  <r_lp_Energy>  (55) 
53.9622

>  <b_lp_Chiralities_Consistent>  (55) 
1

>  <s_lp_Variant>  (55) 
17:0-2

>  <s_i_glide_gridfile>  (55) 
pfpi4k_grid

>  <i_i_glide_lignum>  (55) 
23

>  <i_i_glide_rotatable_bonds>  (55) 
3

>  <r_i_docking_score>  (55) 
-2.68631

>  <r_i_glide_ligand_efficiency>  (55) 
-0.0895436

>  <r_i_glide_ligand_efficiency_sa>  (55) 
-0.278233

>  <r_i_glide_ligand_efficiency_ln>  (55) 
-0.610358

>  <r_i_glide_gscore>  (55) 
-2.68631

>  <r_i_glide_lipo>  (55) 
-0.337237

>  <r_i_glide_hbond>  (55) 
0

>  <r_i_glide_metal>  (55) 
-0

>  <r_i_glide_rewards>  (55) 
-0.610774

>  <r_i_glide_evdw>  (55) 
-28.5381

>  <r_i_glide_ecoul>  (55) 
-2.98222

>  <r_i_glide_erotb>  (55) 
0.233905

>  <r_i_glide_esite>  (55) 
-0.0979638

>  <r_i_glide_emodel>  (55) 
-37.7972

>  <r_i_glide_energy>  (55) 
-31.5203

>  <r_i_glide_einternal>  (55) 
0.613648

>  <r_i_glide_intrahb_reward>  (55) 
-0

>  <i_i_glide_confnum>  (55) 
3

>  <i_i_glide_posenum>  (55) 
2

>  <r_i_glide_eff_state_penalty>  (55) 
0

>  <ligand_id>  (55) 
17

>  <original_smiles>  (55) 
COC(=O)Cn1c(O)c2c(c1O)C1C=CC2C2C3C=CC(c4c3c(O)n(C)c4O)C12

>  <smiles>  (55) 
[H]C1=C([H])C2([H])C3([H])C(=O)N(C([H])([H])[H])C(=O)C3([H])C1([H])C1([H])C3([H])C([H])=C([H])C([H])(C4([H])C(=O)N(C([H])([H])C(=O)OC([H])([H])[H])C(=O)C43[H])C21[H]

$$$$
17:2:0
     RDKit          3D

 52 57  0  0  1  0  0  0  0  0999 V2000
    3.3007    0.4220   -4.5208 C   0  0  0  0  0  0  0  0  0  0  0  0
    3.8127   -0.8875   -4.7252 O   0  0  0  0  0  0  0  0  0  0  0  0
    3.8211   -1.8139   -3.7450 C   0  0  0  0  0  0  0  0  0  0  0  0
    4.2143   -2.9653   -3.9193 O   0  0  0  0  0  0  0  0  0  0  0  0
    3.2989   -1.3481   -2.3791 C   0  0  0  0  0  0  0  0  0  0  0  0
    3.7224   -2.2136   -1.2821 N   0  0  0  0  0  0  0  0  0  0  0  0
    4.8289   -1.9824   -0.5613 C   0  0  0  0  0  0  0  0  0  0  0  0
    5.6442   -1.0751   -0.7461 O   0  0  0  0  0  0  0  0  0  0  0  0
    4.9705   -3.0194    0.5480 C   0  0  2  0  0  0  0  0  0  0  0  0
    3.7142   -3.9178    0.3432 C   0  0  2  0  0  0  0  0  0  0  0  0
    3.0135   -3.2644   -0.8423 C   0  0  0  0  0  0  0  0  0  0  0  0
    1.9398   -3.6712   -1.2888 O   0  0  0  0  0  0  0  0  0  0  0  0
    2.8907   -4.0018    1.6727 C   0  0  1  0  0  0  0  0  0  0  0  0
    3.8965   -4.5245    2.6900 C   0  0  0  0  0  0  0  0  0  0  0  0
    4.9786   -3.7472    2.8679 C   0  0  0  0  0  0  0  0  0  0  0  0
    5.0087   -2.4808    2.0192 C   0  0  2  0  0  0  0  0  0  0  0  0
    3.7086   -1.6514    2.3213 C   0  0  2  0  0  0  0  0  0  0  0  0
    3.6193   -0.9343    3.7119 C   0  0  2  0  0  0  0  0  0  0  0  0
    3.4041   -1.9832    4.7989 C   0  0  0  0  0  0  0  0  0  0  0  0
    2.3260   -2.7630    4.6261 C   0  0  0  0  0  0  0  0  0  0  0  0
    1.5065   -2.4599    3.3745 C   0  0  1  0  0  0  0  0  0  0  0  0
    1.0705   -0.9555    3.4405 C   0  0  2  0  0  0  0  0  0  0  0  0
    2.3267   -0.0494    3.6338 C   0  0  1  0  0  0  0  0  0  0  0  0
    1.9901    0.7159    4.9190 C   0  0  0  0  0  0  0  0  0  0  0  0
    2.7546    1.5440    5.4177 O   0  0  0  0  0  0  0  0  0  0  0  0
    0.7856    0.3648    5.3973 N   0  0  0  0  0  0  0  0  0  0  0  0
    0.1713    0.9628    6.5851 C   0  0  0  0  0  0  0  0  0  0  0  0
    0.2005   -0.5837    4.6502 C   0  0  0  0  0  0  0  0  0  0  0  0
   -0.8941   -1.1097    4.8758 O   0  0  0  0  0  0  0  0  0  0  0  0
    2.4375   -2.5641    2.1165 C   0  0  2  0  0  0  0  0  0  0  0  0
    3.3718    1.0048   -5.4391 H   0  0  0  0  0  0  0  0  0  0  0  0
    3.8702    0.9483   -3.7542 H   0  0  0  0  0  0  0  0  0  0  0  0
    2.2527    0.3775   -4.2237 H   0  0  0  0  0  0  0  0  0  0  0  0
    3.6516   -0.3423   -2.1537 H   0  0  0  0  0  0  0  0  0  0  0  0
    2.2147   -1.3109   -2.4243 H   0  0  0  0  0  0  0  0  0  0  0  0
    5.8756   -3.5937    0.3441 H   0  0  0  0  0  0  0  0  0  0  0  0
    4.0216   -4.9186    0.0328 H   0  0  0  0  0  0  0  0  0  0  0  0
    2.0480   -4.6845    1.5716 H   0  0  0  0  0  0  0  0  0  0  0  0
    3.7173   -5.4545    3.2088 H   0  0  0  0  0  0  0  0  0  0  0  0
    5.7846   -3.9715    3.5503 H   0  0  0  0  0  0  0  0  0  0  0  0
    5.9148   -1.9052    2.2093 H   0  0  0  0  0  0  0  0  0  0  0  0
    3.6667   -0.8454    1.5857 H   0  0  0  0  0  0  0  0  0  0  0  0
    4.5056   -0.3362    3.9222 H   0  0  0  0  0  0  0  0  0  0  0  0
    4.1026   -2.0803    5.6181 H   0  0  0  0  0  0  0  0  0  0  0  0
    2.0457   -3.5691    5.2892 H   0  0  0  0  0  0  0  0  0  0  0  0
    0.6454   -3.1237    3.3048 H   0  0  0  0  0  0  0  0  0  0  0  0
    2.4083    0.6751    2.8228 H   0  0  0  0  0  0  0  0  0  0  0  0
   -0.4385    0.2431    7.1301 H   0  0  0  0  0  0  0  0  0  0  0  0
   -0.4719    1.7973    6.3046 H   0  0  0  0  0  0  0  0  0  0  0  0
    0.9148    1.3454    7.2854 H   0  0  0  0  0  0  0  0  0  0  0  0
    0.5336   -0.6713    2.5351 H   0  0  0  0  0  0  0  0  0  0  0  0
    1.8512   -2.1429    1.2965 H   0  0  0  0  0  0  0  0  0  0  0  0
  1  2  1  0
  1 31  1  0
  1 32  1  0
  1 33  1  0
  2  3  1  0
  3  4  2  0
  3  5  1  0
  5 34  1  0
  5 35  1  0
  5  6  1  0
  6 11  1  0
  6  7  1  0
  7  8  2  0
  7  9  1  0
  9 16  1  0
  9 36  1  6
  9 10  1  0
 10 13  1  0
 10 37  1  6
 10 11  1  0
 11 12  2  0
 13 30  1  0
 13 14  1  0
 13 38  1  6
 14 15  2  0
 14 39  1  0
 15 16  1  0
 15 40  1  0
 16 17  1  0
 16 41  1  6
 17 30  1  0
 17 18  1  0
 17 42  1  6
 18 19  1  0
 18 43  1  1
 18 23  1  0
 19 20  2  0
 19 44  1  0
 20 21  1  0
 20 45  1  0
 21 30  1  0
 21 46  1  6
 21 22  1  0
 22 23  1  0
 22 51  1  6
 22 28  1  0
 23 24  1  0
 23 47  1  6
 24 25  2  0
 24 26  1  0
 26 28  1  0
 26 27  1  0
 27 48  1  0
 27 49  1  0
 27 50  1  0
 28 29  2  0
 30 52  1  6
M  END
>  <i_m_ct_stereo_status>  (56) 
1

>  <s_m_source_file>  (56) 
/var/tmp/pbs.5076255.sched01/tmpsofmo5yl/0au1p7r3z.sdf

>  <i_m_source_file_index>  (56) 
24

>  <i_lp_mmshare_version>  (56) 
48012

>  <i_f3d_flags>  (56) 
0

>  <s_epik_input>  (56) 
W0NIM11PQyg9TylbQ0gyXW4oYzFbT0hdKWMoW09IXSljKGMxMilbQ0BASF0zW0NAQEhdNFtDQEhdKFtDQEhdMltDSF09W0NIXTMpW0NASF01YzZjKFtDQEBIXTRbQ0hdPVtDSF01KWMoW09IXSluKFtDSDNdKWM2W09IXQ==

>  <s_epik_cmdline>  (56) 
J2VwaWtfcHl0aG9uJywgJy1waHQnLCAnMi4wJywgJy1waCcsICc3LjAnLCAnLXRuJywgJzgnLCAnLW1hJywgJzIwMCcsICctaW1hZScsICc8aW5maWxlLm1hZT4nLCAnLW9tYWUnLCAnPG91dGZpbGUubWFlPic=

>  <r_lp_tautomer_probability>  (56) 
1

>  <r_epik_Ionization_Penalty>  (56) 
3.88762e-10

>  <r_epik_Ionization_Penalty_Charging>  (56) 
0

>  <r_epik_Ionization_Penalty_Neutral>  (56) 
3.88762e-10

>  <r_epik_State_Penalty>  (56) 
-0

>  <r_epik_Charging_Adjusted_Penalty>  (56) 
0

>  <i_epik_Tot_Q>  (56) 
0

>  <i_epik_Tot_abs_Q>  (56) 
0

>  <s_epik_Chemistry_Notes>  (56) 
This compound has an ester and may undergo hydrolysis at high or low pH.

>  <s_lp_Force_Field>  (56) 
OPLS3e

>  <r_lp_Energy>  (56) 
52.5244

>  <b_lp_Chiralities_Consistent>  (56) 
1

>  <s_lp_Variant>  (56) 
17:0-3

>  <s_i_glide_gridfile>  (56) 
pfpi4k_grid

>  <i_i_glide_lignum>  (56) 
24

>  <i_i_glide_rotatable_bonds>  (56) 
3

>  <r_i_docking_score>  (56) 
-3.46776

>  <r_i_glide_ligand_efficiency>  (56) 
-0.115592

>  <r_i_glide_ligand_efficiency_sa>  (56) 
-0.359171

>  <r_i_glide_ligand_efficiency_ln>  (56) 
-0.787913

>  <r_i_glide_gscore>  (56) 
-3.46776

>  <r_i_glide_lipo>  (56) 
-0.157404

>  <r_i_glide_hbond>  (56) 
-0.370714

>  <r_i_glide_metal>  (56) 
-0

>  <r_i_glide_rewards>  (56) 
-0.888305

>  <r_i_glide_evdw>  (56) 
-32.1978

>  <r_i_glide_ecoul>  (56) 
-3.9482

>  <r_i_glide_erotb>  (56) 
0.233905

>  <r_i_glide_esite>  (56) 
-0.0831242

>  <r_i_glide_emodel>  (56) 
-42.199

>  <r_i_glide_energy>  (56) 
-36.146

>  <r_i_glide_einternal>  (56) 
4.80389

>  <r_i_glide_intrahb_reward>  (56) 
-0

>  <i_i_glide_confnum>  (56) 
3

>  <i_i_glide_posenum>  (56) 
5

>  <r_i_glide_eff_state_penalty>  (56) 
0

>  <ligand_id>  (56) 
17

>  <original_smiles>  (56) 
COC(=O)Cn1c(O)c2c(c1O)C1C=CC2C2C3C=CC(c4c3c(O)n(C)c4O)C12

>  <smiles>  (56) 
[H]C1=C([H])C2([H])C3([H])C(=O)N(C([H])([H])[H])C(=O)C3([H])C1([H])C1([H])C3([H])C([H])=C([H])C([H])(C4([H])C(=O)N(C([H])([H])C(=O)OC([H])([H])[H])C(=O)C43[H])C21[H]

$$$$
17:2:1
     RDKit          3D

 52 57  0  0  1  0  0  0  0  0999 V2000
    4.8998   -4.2496   -4.1979 C   0  0  0  0  0  0  0  0  0  0  0  0
    4.1814   -3.5294   -3.2134 O   0  0  0  0  0  0  0  0  0  0  0  0
    3.9122   -2.2323   -3.3718 C   0  0  0  0  0  0  0  0  0  0  0  0
    4.2130   -1.5475   -4.3466 O   0  0  0  0  0  0  0  0  0  0  0  0
    3.1490   -1.6282   -2.1964 C   0  0  0  0  0  0  0  0  0  0  0  0
    3.5776   -2.1598   -0.8934 N   0  0  0  0  0  0  0  0  0  0  0  0
    4.5664   -1.6316   -0.1557 C   0  0  0  0  0  0  0  0  0  0  0  0
    5.2891   -0.6873   -0.4737 O   0  0  0  0  0  0  0  0  0  0  0  0
    4.7213   -2.3898    1.1643 C   0  0  2  0  0  0  0  0  0  0  0  0
    3.6174   -3.4755    1.0753 C   0  0  2  0  0  0  0  0  0  0  0  0
    2.9810   -3.1954   -0.2823 C   0  0  0  0  0  0  0  0  0  0  0  0
    2.0428   -3.8601   -0.7195 O   0  0  0  0  0  0  0  0  0  0  0  0
    2.6756   -3.3990    2.3274 C   0  0  1  0  0  0  0  0  0  0  0  0
    3.6324   -3.5573    3.5032 C   0  0  0  0  0  0  0  0  0  0  0  0
    4.5912   -2.6183    3.5831 C   0  0  0  0  0  0  0  0  0  0  0  0
    4.5507   -1.5609    2.4840 C   0  0  2  0  0  0  0  0  0  0  0  0
    3.1371   -0.8761    2.5082 C   0  0  2  0  0  0  0  0  0  0  0  0
    2.8280    0.0937    3.7004 C   0  0  2  0  0  0  0  0  0  0  0  0
    2.6354   -0.7286    4.9722 C   0  0  0  0  0  0  0  0  0  0  0  0
    1.6822   -1.6691    4.8979 C   0  0  0  0  0  0  0  0  0  0  0  0
    0.9582   -1.7456    3.5554 C   0  0  1  0  0  0  0  0  0  0  0  0
    0.3421   -0.3294    3.2654 C   0  0  2  0  0  0  0  0  0  0  0  0
    1.4511    0.7572    3.3424 C   0  0  1  0  0  0  0  0  0  0  0  0
    0.9009    1.7174    4.4044 C   0  0  0  0  0  0  0  0  0  0  0  0
    1.5081    2.7228    4.7699 O   0  0  0  0  0  0  0  0  0  0  0  0
   -0.2938    1.3073    4.8634 N   0  0  0  0  0  0  0  0  0  0  0  0
   -1.0880    2.0433    5.8510 C   0  0  0  0  0  0  0  0  0  0  0  0
   -0.6784    0.1472    4.3085 C   0  0  0  0  0  0  0  0  0  0  0  0
   -1.6997   -0.4859    4.5840 O   0  0  0  0  0  0  0  0  0  0  0  0
    2.0122   -1.9782    2.4183 C   0  0  2  0  0  0  0  0  0  0  0  0
    4.9793   -5.2972   -3.9173 H   0  0  0  0  0  0  0  0  0  0  0  0
    5.9065   -3.8515   -4.3017 H   0  0  0  0  0  0  0  0  0  0  0  0
    4.4028   -4.2119   -5.1625 H   0  0  0  0  0  0  0  0  0  0  0  0
    3.3023   -0.5492   -2.2186 H   0  0  0  0  0  0  0  0  0  0  0  0
    2.0854   -1.8146   -2.3455 H   0  0  0  0  0  0  0  0  0  0  0  0
    5.7049   -2.8623    1.1571 H   0  0  0  0  0  0  0  0  0  0  0  0
    4.0671   -4.4678    1.0189 H   0  0  0  0  0  0  0  0  0  0  0  0
    1.9337   -4.1956    2.3200 H   0  0  0  0  0  0  0  0  0  0  0  0
    3.5155   -4.3780    4.1963 H   0  0  0  0  0  0  0  0  0  0  0  0
    5.3509   -2.5813    4.3502 H   0  0  0  0  0  0  0  0  0  0  0  0
    5.3573   -0.8402    2.6074 H   0  0  0  0  0  0  0  0  0  0  0  0
    3.0688   -0.2536    1.6131 H   0  0  0  0  0  0  0  0  0  0  0  0
    3.6113    0.8374    3.8361 H   0  0  0  0  0  0  0  0  0  0  0  0
    3.2596   -0.5557    5.8374 H   0  0  0  0  0  0  0  0  0  0  0  0
    1.4359   -2.3543    5.6967 H   0  0  0  0  0  0  0  0  0  0  0  0
    0.1991   -2.5252    3.5765 H   0  0  0  0  0  0  0  0  0  0  0  0
    1.5258    1.3011    2.3992 H   0  0  0  0  0  0  0  0  0  0  0  0
   -1.6587    1.3747    6.4951 H   0  0  0  0  0  0  0  0  0  0  0  0
   -1.7969    2.7042    5.3519 H   0  0  0  0  0  0  0  0  0  0  0  0
   -0.4676    2.6615    6.5011 H   0  0  0  0  0  0  0  0  0  0  0  0
   -0.1326   -0.2926    2.2853 H   0  0  0  0  0  0  0  0  0  0  0  0
    1.4617   -1.8222    1.4877 H   0  0  0  0  0  0  0  0  0  0  0  0
  1  2  1  0
  1 31  1  0
  1 32  1  0
  1 33  1  0
  2  3  1  0
  3  4  2  0
  3  5  1  0
  5 34  1  0
  5 35  1  0
  5  6  1  0
  6 11  1  0
  6  7  1  0
  7  8  2  0
  7  9  1  0
  9 16  1  0
  9 36  1  1
  9 10  1  0
 10 13  1  0
 10 37  1  6
 10 11  1  0
 11 12  2  0
 13 30  1  0
 13 14  1  0
 13 38  1  6
 14 15  2  0
 14 39  1  0
 15 16  1  0
 15 40  1  0
 16 17  1  0
 16 41  1  1
 17 30  1  0
 17 18  1  0
 17 42  1  6
 18 19  1  0
 18 43  1  1
 18 23  1  0
 19 20  2  0
 19 44  1  0
 20 21  1  0
 20 45  1  0
 21 30  1  0
 21 46  1  1
 21 22  1  0
 22 23  1  0
 22 51  1  6
 22 28  1  0
 23 24  1  0
 23 47  1  6
 24 25  2  0
 24 26  1  0
 26 28  1  0
 26 27  1  0
 27 48  1  0
 27 49  1  0
 27 50  1  0
 28 29  2  0
 30 52  1  6
M  END
>  <i_m_ct_stereo_status>  (57) 
1

>  <s_m_source_file>  (57) 
/var/tmp/pbs.5076255.sched01/tmpsofmo5yl/0au1p7r3z.sdf

>  <i_m_source_file_index>  (57) 
24

>  <i_lp_mmshare_version>  (57) 
48012

>  <i_f3d_flags>  (57) 
0

>  <s_epik_input>  (57) 
W0NIM11PQyg9TylbQ0gyXW4oYzFbT0hdKWMoW09IXSljKGMxMilbQ0BASF0zW0NAQEhdNFtDQEhdKFtDQEhdMltDSF09W0NIXTMpW0NASF01YzZjKFtDQEBIXTRbQ0hdPVtDSF01KWMoW09IXSluKFtDSDNdKWM2W09IXQ==

>  <s_epik_cmdline>  (57) 
J2VwaWtfcHl0aG9uJywgJy1waHQnLCAnMi4wJywgJy1waCcsICc3LjAnLCAnLXRuJywgJzgnLCAnLW1hJywgJzIwMCcsICctaW1hZScsICc8aW5maWxlLm1hZT4nLCAnLW9tYWUnLCAnPG91dGZpbGUubWFlPic=

>  <r_lp_tautomer_probability>  (57) 
1

>  <r_epik_Ionization_Penalty>  (57) 
3.88762e-10

>  <r_epik_Ionization_Penalty_Charging>  (57) 
0

>  <r_epik_Ionization_Penalty_Neutral>  (57) 
3.88762e-10

>  <r_epik_State_Penalty>  (57) 
-0

>  <r_epik_Charging_Adjusted_Penalty>  (57) 
0

>  <i_epik_Tot_Q>  (57) 
0

>  <i_epik_Tot_abs_Q>  (57) 
0

>  <s_epik_Chemistry_Notes>  (57) 
This compound has an ester and may undergo hydrolysis at high or low pH.

>  <s_lp_Force_Field>  (57) 
OPLS3e

>  <r_lp_Energy>  (57) 
52.5244

>  <b_lp_Chiralities_Consistent>  (57) 
1

>  <s_lp_Variant>  (57) 
17:0-3

>  <s_i_glide_gridfile>  (57) 
pfpi4k_grid

>  <i_i_glide_lignum>  (57) 
24

>  <i_i_glide_rotatable_bonds>  (57) 
3

>  <r_i_docking_score>  (57) 
-3.10325

>  <r_i_glide_ligand_efficiency>  (57) 
-0.103442

>  <r_i_glide_ligand_efficiency_sa>  (57) 
-0.321418

>  <r_i_glide_ligand_efficiency_ln>  (57) 
-0.705093

>  <r_i_glide_gscore>  (57) 
-3.10325

>  <r_i_glide_lipo>  (57) 
-0.0969878

>  <r_i_glide_hbond>  (57) 
-0.324446

>  <r_i_glide_metal>  (57) 
-0

>  <r_i_glide_rewards>  (57) 
-0.852486

>  <r_i_glide_evdw>  (57) 
-30.081

>  <r_i_glide_ecoul>  (57) 
-2.83416

>  <r_i_glide_erotb>  (57) 
0.233905

>  <r_i_glide_esite>  (57) 
-0.134063

>  <r_i_glide_emodel>  (57) 
-40.1889

>  <r_i_glide_energy>  (57) 
-32.9152

>  <r_i_glide_einternal>  (57) 
0.46326

>  <r_i_glide_intrahb_reward>  (57) 
-0

>  <i_i_glide_confnum>  (57) 
3

>  <i_i_glide_posenum>  (57) 
24

>  <r_i_glide_eff_state_penalty>  (57) 
0

>  <ligand_id>  (57) 
17

>  <original_smiles>  (57) 
COC(=O)Cn1c(O)c2c(c1O)C1C=CC2C2C3C=CC(c4c3c(O)n(C)c4O)C12

>  <smiles>  (57) 
[H]C1=C([H])C2([H])C3([H])C(=O)N(C([H])([H])[H])C(=O)C3([H])C1([H])C1([H])C3([H])C([H])=C([H])C([H])(C4([H])C(=O)N(C([H])([H])C(=O)OC([H])([H])[H])C(=O)C43[H])C21[H]

$$$$
17:2:2
     RDKit          3D

 52 57  0  0  1  0  0  0  0  0999 V2000
   -2.9842    3.1110    6.0698 C   0  0  0  0  0  0  0  0  0  0  0  0
   -2.1525    2.4137    5.1570 O   0  0  0  0  0  0  0  0  0  0  0  0
   -1.8119    2.9902    3.9906 C   0  0  0  0  0  0  0  0  0  0  0  0
   -2.1778    4.1104    3.6272 O   0  0  0  0  0  0  0  0  0  0  0  0
   -0.9232    2.1018    3.1039 C   0  0  0  0  0  0  0  0  0  0  0  0
    0.2091    1.5102    3.8337 N   0  0  0  0  0  0  0  0  0  0  0  0
    0.1467    0.3326    4.4800 C   0  0  0  0  0  0  0  0  0  0  0  0
   -0.8445   -0.3946    4.5811 O   0  0  0  0  0  0  0  0  0  0  0  0
    1.4928   -0.0131    5.1188 C   0  0  2  0  0  0  0  0  0  0  0  0
    2.3914    1.1834    4.7033 C   0  0  2  0  0  0  0  0  0  0  0  0
    1.4367    2.0561    3.8865 C   0  0  0  0  0  0  0  0  0  0  0  0
    1.7879    3.1193    3.3750 O   0  0  0  0  0  0  0  0  0  0  0  0
    3.6780    0.6620    3.9748 C   0  0  1  0  0  0  0  0  0  0  0  0
    4.3079   -0.2970    4.9791 C   0  0  0  0  0  0  0  0  0  0  0  0
    3.5280   -1.3327    5.3377 C   0  0  0  0  0  0  0  0  0  0  0  0
    2.1546   -1.3620    4.6749 C   0  0  2  0  0  0  0  0  0  0  0  0
    2.3575   -1.3684    3.1166 C   0  0  2  0  0  0  0  0  0  0  0  0
    2.9016   -2.6877    2.4692 C   0  0  2  0  0  0  0  0  0  0  0  0
    4.3744   -2.8481    2.8297 C   0  0  0  0  0  0  0  0  0  0  0  0
    5.1565   -1.8174    2.4742 C   0  0  0  0  0  0  0  0  0  0  0  0
    4.4372   -0.6681    1.7732 C   0  0  1  0  0  0  0  0  0  0  0  0
    3.7290   -1.2583    0.5076 C   0  0  2  0  0  0  0  0  0  0  0  0
    2.8203   -2.4484    0.9242 C   0  0  1  0  0  0  0  0  0  0  0  0
    3.3383   -3.5947    0.0547 C   0  0  0  0  0  0  0  0  0  0  0  0
    2.8466   -4.7247    0.0992 O   0  0  0  0  0  0  0  0  0  0  0  0
    4.3485   -3.1890   -0.7308 N   0  0  0  0  0  0  0  0  0  0  0  0
    5.0298   -4.0478   -1.7010 C   0  0  0  0  0  0  0  0  0  0  0  0
    4.6591   -1.8981   -0.5322 C   0  0  0  0  0  0  0  0  0  0  0  0
    5.5657   -1.2766   -1.0948 O   0  0  0  0  0  0  0  0  0  0  0  0
    3.2765   -0.1552    2.6963 C   0  0  2  0  0  0  0  0  0  0  0  0
   -3.1666    2.4996    6.9542 H   0  0  0  0  0  0  0  0  0  0  0  0
   -3.9502    3.3419    5.6181 H   0  0  0  0  0  0  0  0  0  0  0  0
   -2.5204    4.0441    6.3910 H   0  0  0  0  0  0  0  0  0  0  0  0
   -1.5273    1.3101    2.6564 H   0  0  0  0  0  0  0  0  0  0  0  0
   -0.5419    2.7028    2.2765 H   0  0  0  0  0  0  0  0  0  0  0  0
    1.3580   -0.0125    6.2017 H   0  0  0  0  0  0  0  0  0  0  0  0
    2.6849    1.7526    5.5875 H   0  0  0  0  0  0  0  0  0  0  0  0
    4.3568    1.4787    3.7402 H   0  0  0  0  0  0  0  0  0  0  0  0
    5.3080   -0.1285    5.3514 H   0  0  0  0  0  0  0  0  0  0  0  0
    3.8211   -2.1035    6.0354 H   0  0  0  0  0  0  0  0  0  0  0  0
    1.5756   -2.2199    5.0157 H   0  0  0  0  0  0  0  0  0  0  0  0
    1.3743   -1.2172    2.6656 H   0  0  0  0  0  0  0  0  0  0  0  0
    2.3267   -3.5615    2.7746 H   0  0  0  0  0  0  0  0  0  0  0  0
    4.7237   -3.7292    3.3493 H   0  0  0  0  0  0  0  0  0  0  0  0
    6.2142   -1.7623    2.6726 H   0  0  0  0  0  0  0  0  0  0  0  0
    5.1346    0.1253    1.5065 H   0  0  0  0  0  0  0  0  0  0  0  0
    1.7980   -2.2574    0.6291 H   0  0  0  0  0  0  0  0  0  0  0  0
    6.0844   -3.7882   -1.7967 H   0  0  0  0  0  0  0  0  0  0  0  0
    4.5741   -3.9529   -2.6871 H   0  0  0  0  0  0  0  0  0  0  0  0
    4.9854   -5.1002   -1.4190 H   0  0  0  0  0  0  0  0  0  0  0  0
    3.1341   -0.4938    0.0123 H   0  0  0  0  0  0  0  0  0  0  0  0
    2.6883    0.5127    2.0642 H   0  0  0  0  0  0  0  0  0  0  0  0
  1  2  1  0
  1 31  1  0
  1 32  1  0
  1 33  1  0
  2  3  1  0
  3  4  2  0
  3  5  1  0
  5 34  1  0
  5 35  1  0
  5  6  1  0
  6 11  1  0
  6  7  1  0
  7  8  2  0
  7  9  1  0
  9 16  1  0
  9 36  1  1
  9 10  1  0
 10 13  1  0
 10 37  1  1
 10 11  1  0
 11 12  2  0
 13 30  1  0
 13 14  1  0
 13 38  1  6
 14 15  2  0
 14 39  1  0
 15 16  1  0
 15 40  1  0
 16 17  1  0
 16 41  1  1
 17 30  1  0
 17 18  1  0
 17 42  1  6
 18 19  1  0
 18 43  1  6
 18 23  1  0
 19 20  2  0
 19 44  1  0
 20 21  1  0
 20 45  1  0
 21 30  1  0
 21 46  1  6
 21 22  1  0
 22 23  1  0
 22 51  1  6
 22 28  1  0
 23 24  1  0
 23 47  1  6
 24 25  2  0
 24 26  1  0
 26 28  1  0
 26 27  1  0
 27 48  1  0
 27 49  1  0
 27 50  1  0
 28 29  2  0
 30 52  1  6
M  END
>  <i_m_ct_stereo_status>  (58) 
1

>  <s_m_source_file>  (58) 
/var/tmp/pbs.5076255.sched01/tmpsofmo5yl/0au1p7r3z.sdf

>  <i_m_source_file_index>  (58) 
24

>  <i_lp_mmshare_version>  (58) 
48012

>  <i_f3d_flags>  (58) 
0

>  <s_epik_input>  (58) 
W0NIM11PQyg9TylbQ0gyXW4oYzFbT0hdKWMoW09IXSljKGMxMilbQ0BASF0zW0NAQEhdNFtDQEhdKFtDQEhdMltDSF09W0NIXTMpW0NASF01YzZjKFtDQEBIXTRbQ0hdPVtDSF01KWMoW09IXSluKFtDSDNdKWM2W09IXQ==

>  <s_epik_cmdline>  (58) 
J2VwaWtfcHl0aG9uJywgJy1waHQnLCAnMi4wJywgJy1waCcsICc3LjAnLCAnLXRuJywgJzgnLCAnLW1hJywgJzIwMCcsICctaW1hZScsICc8aW5maWxlLm1hZT4nLCAnLW9tYWUnLCAnPG91dGZpbGUubWFlPic=

>  <r_lp_tautomer_probability>  (58) 
1

>  <r_epik_Ionization_Penalty>  (58) 
3.88762e-10

>  <r_epik_Ionization_Penalty_Charging>  (58) 
0

>  <r_epik_Ionization_Penalty_Neutral>  (58) 
3.88762e-10

>  <r_epik_State_Penalty>  (58) 
-0

>  <r_epik_Charging_Adjusted_Penalty>  (58) 
0

>  <i_epik_Tot_Q>  (58) 
0

>  <i_epik_Tot_abs_Q>  (58) 
0

>  <s_epik_Chemistry_Notes>  (58) 
This compound has an ester and may undergo hydrolysis at high or low pH.

>  <s_lp_Force_Field>  (58) 
OPLS3e

>  <r_lp_Energy>  (58) 
52.5244

>  <b_lp_Chiralities_Consistent>  (58) 
1

>  <s_lp_Variant>  (58) 
17:0-3

>  <s_i_glide_gridfile>  (58) 
pfpi4k_grid

>  <i_i_glide_lignum>  (58) 
24

>  <i_i_glide_rotatable_bonds>  (58) 
3

>  <r_i_docking_score>  (58) 
-2.85569

>  <r_i_glide_ligand_efficiency>  (58) 
-0.0951897

>  <r_i_glide_ligand_efficiency_sa>  (58) 
-0.295776

>  <r_i_glide_ligand_efficiency_ln>  (58) 
-0.648844

>  <r_i_glide_gscore>  (58) 
-2.85569

>  <r_i_glide_lipo>  (58) 
-0.294507

>  <r_i_glide_hbond>  (58) 
-0.0913999

>  <r_i_glide_metal>  (58) 
-0

>  <r_i_glide_rewards>  (58) 
-0.642862

>  <r_i_glide_evdw>  (58) 
-29.9781

>  <r_i_glide_ecoul>  (58) 
-2.97157

>  <r_i_glide_erotb>  (58) 
0.233905

>  <r_i_glide_esite>  (58) 
-0.116187

>  <r_i_glide_emodel>  (58) 
-39.7641

>  <r_i_glide_energy>  (58) 
-32.9496

>  <r_i_glide_einternal>  (58) 
0.254339

>  <r_i_glide_intrahb_reward>  (58) 
-0

>  <i_i_glide_confnum>  (58) 
1

>  <i_i_glide_posenum>  (58) 
23

>  <r_i_glide_eff_state_penalty>  (58) 
0

>  <ligand_id>  (58) 
17

>  <original_smiles>  (58) 
COC(=O)Cn1c(O)c2c(c1O)C1C=CC2C2C3C=CC(c4c3c(O)n(C)c4O)C12

>  <smiles>  (58) 
[H]C1=C([H])C2([H])C3([H])C(=O)N(C([H])([H])[H])C(=O)C3([H])C1([H])C1([H])C3([H])C([H])=C([H])C([H])(C4([H])C(=O)N(C([H])([H])C(=O)OC([H])([H])[H])C(=O)C43[H])C21[H]

$$$$
17:3:0
     RDKit          3D

 52 57  0  0  1  0  0  0  0  0999 V2000
   -2.7717    2.9415    4.8123 C   0  0  0  0  0  0  0  0  0  0  0  0
   -1.6823    2.8362    5.7184 O   0  0  0  0  0  0  0  0  0  0  0  0
   -1.6786    1.8820    6.6658 C   0  0  0  0  0  0  0  0  0  0  0  0
   -2.5803    1.0669    6.8776 O   0  0  0  0  0  0  0  0  0  0  0  0
   -0.3947    1.8610    7.4948 C   0  0  0  0  0  0  0  0  0  0  0  0
    0.6859    1.1487    6.7975 N   0  0  0  0  0  0  0  0  0  0  0  0
    1.6738    1.7631    6.1297 C   0  0  0  0  0  0  0  0  0  0  0  0
    1.8060    2.9795    5.9987 O   0  0  0  0  0  0  0  0  0  0  0  0
    2.6742    0.7513    5.5550 C   0  0  1  0  0  0  0  0  0  0  0  0
    2.0757   -0.6152    6.0134 C   0  0  1  0  0  0  0  0  0  0  0  0
    0.8149   -0.1859    6.7786 C   0  0  0  0  0  0  0  0  0  0  0  0
    0.0439   -0.9910    7.3080 O   0  0  0  0  0  0  0  0  0  0  0  0
    1.8102   -1.5253    4.7639 C   0  0  1  0  0  0  0  0  0  0  0  0
    0.9368   -0.7345    3.7949 C   0  0  0  0  0  0  0  0  0  0  0  0
    1.4482    0.4420    3.4009 C   0  0  0  0  0  0  0  0  0  0  0  0
    2.8128    0.7800    3.9927 C   0  0  2  0  0  0  0  0  0  0  0  0
    3.8138   -0.3705    3.6392 C   0  0  2  0  0  0  0  0  0  0  0  0
    4.2997   -0.4808    2.1547 C   0  0  2  0  0  0  0  0  0  0  0  0
    3.1539   -1.0038    1.2990 C   0  0  0  0  0  0  0  0  0  0  0  0
    2.6468   -2.1810    1.6919 C   0  0  0  0  0  0  0  0  0  0  0  0
    3.3024   -2.7878    2.9281 C   0  0  1  0  0  0  0  0  0  0  0  0
    4.8338   -2.9406    2.6284 C   0  0  2  0  0  0  0  0  0  0  0  0
    5.4254   -1.5720    2.1686 C   0  0  1  0  0  0  0  0  0  0  0  0
    6.0203   -1.9077    0.7934 C   0  0  0  0  0  0  0  0  0  0  0  0
    6.5959   -1.0770    0.0863 O   0  0  0  0  0  0  0  0  0  0  0  0
    5.8437   -3.2024    0.4938 N   0  0  0  0  0  0  0  0  0  0  0  0
    6.3479   -3.8299   -0.7268 C   0  0  0  0  0  0  0  0  0  0  0  0
    5.1696   -3.8618    1.4484 C   0  0  0  0  0  0  0  0  0  0  0  0
    4.8534   -5.0508    1.4225 O   0  0  0  0  0  0  0  0  0  0  0  0
    3.2117   -1.7574    4.1038 C   0  0  2  0  0  0  0  0  0  0  0  0
   -2.6334    3.7942    4.1457 H   0  0  0  0  0  0  0  0  0  0  0  0
   -3.7207    3.0720    5.3376 H   0  0  0  0  0  0  0  0  0  0  0  0
   -2.8385    2.0490    4.1894 H   0  0  0  0  0  0  0  0  0  0  0  0
   -0.0970    2.8860    7.7322 H   0  0  0  0  0  0  0  0  0  0  0  0
   -0.5993    1.3732    8.4483 H   0  0  0  0  0  0  0  0  0  0  0  0
    3.6429    0.9245    6.0268 H   0  0  0  0  0  0  0  0  0  0  0  0
    2.7513   -1.1130    6.7120 H   0  0  0  0  0  0  0  0  0  0  0  0
    1.3335   -2.4638    5.0456 H   0  0  0  0  0  0  0  0  0  0  0  0
   -0.0085   -1.1310    3.4560 H   0  0  0  0  0  0  0  0  0  0  0  0
    0.9683    1.1144    2.7036 H   0  0  0  0  0  0  0  0  0  0  0  0
    3.1649    1.7481    3.6363 H   0  0  0  0  0  0  0  0  0  0  0  0
    4.7111   -0.1796    4.2330 H   0  0  0  0  0  0  0  0  0  0  0  0
    4.6612    0.4698    1.7672 H   0  0  0  0  0  0  0  0  0  0  0  0
    2.7798   -0.4343    0.4609 H   0  0  0  0  0  0  0  0  0  0  0  0
    1.8191   -2.6722    1.2009 H   0  0  0  0  0  0  0  0  0  0  0  0
    2.8430   -3.7432    3.1827 H   0  0  0  0  0  0  0  0  0  0  0  0
    6.2375   -1.2677    2.8284 H   0  0  0  0  0  0  0  0  0  0  0  0
    5.7171   -4.6598   -1.0427 H   0  0  0  0  0  0  0  0  0  0  0  0
    7.3557   -4.2129   -0.5666 H   0  0  0  0  0  0  0  0  0  0  0  0
    6.3881   -3.1298   -1.5615 H   0  0  0  0  0  0  0  0  0  0  0  0
    5.3613   -3.3169    3.5066 H   0  0  0  0  0  0  0  0  0  0  0  0
    3.8545   -2.1519    4.8942 H   0  0  0  0  0  0  0  0  0  0  0  0
  1  2  1  0
  1 31  1  0
  1 32  1  0
  1 33  1  0
  2  3  1  0
  3  4  2  0
  3  5  1  0
  5 34  1  0
  5 35  1  0
  5  6  1  0
  6 11  1  0
  6  7  1  0
  7  8  2  0
  7  9  1  0
  9 16  1  0
  9 36  1  1
  9 10  1  0
 10 13  1  0
 10 37  1  1
 10 11  1  0
 11 12  2  0
 13 30  1  0
 13 14  1  0
 13 38  1  1
 14 15  2  0
 14 39  1  0
 15 16  1  0
 15 40  1  0
 16 17  1  0
 16 41  1  6
 17 30  1  0
 17 18  1  0
 17 42  1  1
 18 19  1  0
 18 43  1  6
 18 23  1  0
 19 20  2  0
 19 44  1  0
 20 21  1  0
 20 45  1  0
 21 30  1  0
 21 46  1  1
 21 22  1  0
 22 23  1  0
 22 51  1  1
 22 28  1  0
 23 24  1  0
 23 47  1  1
 24 25  2  0
 24 26  1  0
 26 28  1  0
 26 27  1  0
 27 48  1  0
 27 49  1  0
 27 50  1  0
 28 29  2  0
 30 52  1  1
M  END
>  <i_m_ct_stereo_status>  (59) 
1

>  <s_m_source_file>  (59) 
/var/tmp/pbs.5076255.sched01/tmpsofmo5yl/0au1p7r3z.sdf

>  <i_m_source_file_index>  (59) 
25

>  <i_lp_mmshare_version>  (59) 
48012

>  <i_f3d_flags>  (59) 
0

>  <s_epik_input>  (59) 
W0NIM11PQyg9TylbQ0gyXW4oYzFbT0hdKWMoW09IXSljKGMxMilbQ0BASF0zW0NAQEhdNFtDQEhdKFtDQEhdMltDSF09W0NIXTMpW0NASF01YzZjKFtDQEBIXTRbQ0hdPVtDSF01KWMoW09IXSluKFtDSDNdKWM2W09IXQ==

>  <s_epik_cmdline>  (59) 
J2VwaWtfcHl0aG9uJywgJy1waHQnLCAnMi4wJywgJy1waCcsICc3LjAnLCAnLXRuJywgJzgnLCAnLW1hJywgJzIwMCcsICctaW1hZScsICc8aW5maWxlLm1hZT4nLCAnLW9tYWUnLCAnPG91dGZpbGUubWFlPic=

>  <r_lp_tautomer_probability>  (59) 
1

>  <r_epik_Ionization_Penalty>  (59) 
3.88762e-10

>  <r_epik_Ionization_Penalty_Charging>  (59) 
0

>  <r_epik_Ionization_Penalty_Neutral>  (59) 
3.88762e-10

>  <r_epik_State_Penalty>  (59) 
-0

>  <r_epik_Charging_Adjusted_Penalty>  (59) 
0

>  <i_epik_Tot_Q>  (59) 
0

>  <i_epik_Tot_abs_Q>  (59) 
0

>  <s_epik_Chemistry_Notes>  (59) 
This compound has an ester and may undergo hydrolysis at high or low pH.

>  <s_lp_Force_Field>  (59) 
OPLS3e

>  <r_lp_Energy>  (59) 
52.105

>  <b_lp_Chiralities_Consistent>  (59) 
1

>  <s_lp_Variant>  (59) 
17:0-4

>  <s_i_glide_gridfile>  (59) 
pfpi4k_grid

>  <i_i_glide_lignum>  (59) 
25

>  <i_i_glide_rotatable_bonds>  (59) 
3

>  <r_i_docking_score>  (59) 
-3.20965

>  <r_i_glide_ligand_efficiency>  (59) 
-0.106988

>  <r_i_glide_ligand_efficiency_sa>  (59) 
-0.332438

>  <r_i_glide_ligand_efficiency_ln>  (59) 
-0.729268

>  <r_i_glide_gscore>  (59) 
-3.20965

>  <r_i_glide_lipo>  (59) 
-0.298877

>  <r_i_glide_hbond>  (59) 
-0.209964

>  <r_i_glide_metal>  (59) 
-0

>  <r_i_glide_rewards>  (59) 
-0.896457

>  <r_i_glide_evdw>  (59) 
-22.3433

>  <r_i_glide_ecoul>  (59) 
-5.93007

>  <r_i_glide_erotb>  (59) 
0.233905

>  <r_i_glide_esite>  (59) 
-0.0315832

>  <r_i_glide_emodel>  (59) 
-34.2614

>  <r_i_glide_energy>  (59) 
-28.2734

>  <r_i_glide_einternal>  (59) 
0.746941

>  <r_i_glide_intrahb_reward>  (59) 
-0

>  <i_i_glide_confnum>  (59) 
3

>  <i_i_glide_posenum>  (59) 
3

>  <r_i_glide_eff_state_penalty>  (59) 
0

>  <ligand_id>  (59) 
17

>  <original_smiles>  (59) 
COC(=O)Cn1c(O)c2c(c1O)C1C=CC2C2C3C=CC(c4c3c(O)n(C)c4O)C12

>  <smiles>  (59) 
[H]C1=C([H])C2([H])C3([H])C(=O)N(C([H])([H])[H])C(=O)C3([H])C1([H])C1([H])C3([H])C([H])=C([H])C([H])(C4([H])C(=O)N(C([H])([H])C(=O)OC([H])([H])[H])C(=O)C43[H])C21[H]

$$$$
17:3:1
     RDKit          3D

 52 57  0  0  1  0  0  0  0  0999 V2000
   -1.8712    4.5302    2.8991 C   0  0  0  0  0  0  0  0  0  0  0  0
   -1.0942    4.3122    4.0677 O   0  0  0  0  0  0  0  0  0  0  0  0
   -1.5392    3.4727    5.0147 C   0  0  0  0  0  0  0  0  0  0  0  0
   -2.6483    2.9450    5.0370 O   0  0  0  0  0  0  0  0  0  0  0  0
   -0.5211    3.2182    6.1302 C   0  0  0  0  0  0  0  0  0  0  0  0
    0.5627    2.3304    5.6856 N   0  0  0  0  0  0  0  0  0  0  0  0
    1.6544    2.7530    5.0277 C   0  0  0  0  0  0  0  0  0  0  0  0
    1.9021    3.9172    4.7115 O   0  0  0  0  0  0  0  0  0  0  0  0
    2.6169    1.5959    4.7405 C   0  0  1  0  0  0  0  0  0  0  0  0
    1.8757    0.3750    5.3678 C   0  0  1  0  0  0  0  0  0  0  0  0
    0.5875    1.0081    5.9132 C   0  0  0  0  0  0  0  0  0  0  0  0
   -0.2811    0.3570    6.5008 O   0  0  0  0  0  0  0  0  0  0  0  0
    1.6566   -0.7305    4.2776 C   0  0  1  0  0  0  0  0  0  0  0  0
    0.9365   -0.0779    3.1010 C   0  0  0  0  0  0  0  0  0  0  0  0
    1.5671    0.9753    2.5606 C   0  0  0  0  0  0  0  0  0  0  0  0
    2.8951    1.3348    3.2195 C   0  0  2  0  0  0  0  0  0  0  0  0
    3.8358    0.0832    3.1759 C   0  0  2  0  0  0  0  0  0  0  0  0
    4.4472   -0.3241    1.7907 C   0  0  2  0  0  0  0  0  0  0  0  0
    3.3470   -0.9327    0.9319 C   0  0  0  0  0  0  0  0  0  0  0  0
    2.7136   -1.9813    1.4742 C   0  0  0  0  0  0  0  0  0  0  0  0
    3.2095   -2.3906    2.8555 C   0  0  1  0  0  0  0  0  0  0  0  0
    4.7464   -2.6830    2.7399 C   0  0  2  0  0  0  0  0  0  0  0  0
    5.4805   -1.4586    2.1089 C   0  0  1  0  0  0  0  0  0  0  0  0
    6.1650   -2.0753    0.8794 C   0  0  0  0  0  0  0  0  0  0  0  0
    6.8582   -1.4256    0.0941 O   0  0  0  0  0  0  0  0  0  0  0  0
    5.9182   -3.3895    0.7989 N   0  0  0  0  0  0  0  0  0  0  0  0
    6.4791   -4.2556   -0.2389 C   0  0  0  0  0  0  0  0  0  0  0  0
    5.1135   -3.8217    1.7806 C   0  0  0  0  0  0  0  0  0  0  0  0
    4.7092   -4.9750    1.9337 O   0  0  0  0  0  0  0  0  0  0  0  0
    3.0920   -1.1581    3.8145 C   0  0  2  0  0  0  0  0  0  0  0  0
   -1.3838    5.2626    2.2561 H   0  0  0  0  0  0  0  0  0  0  0  0
   -2.8641    4.9145    3.1401 H   0  0  0  0  0  0  0  0  0  0  0  0
   -1.9913    3.6045    2.3336 H   0  0  0  0  0  0  0  0  0  0  0  0
   -0.1126    4.1691    6.4803 H   0  0  0  0  0  0  0  0  0  0  0  0
   -1.0382    2.7765    6.9850 H   0  0  0  0  0  0  0  0  0  0  0  0
    3.5492    1.7957    5.2705 H   0  0  0  0  0  0  0  0  0  0  0  0
    2.4457   -0.0240    6.2088 H   0  0  0  0  0  0  0  0  0  0  0  0
    1.0867   -1.5723    4.6697 H   0  0  0  0  0  0  0  0  0  0  0  0
   -0.0044   -0.4680    2.7448 H   0  0  0  0  0  0  0  0  0  0  0  0
    1.1974    1.5384    1.7145 H   0  0  0  0  0  0  0  0  0  0  0  0
    3.3433    2.2044    2.7425 H   0  0  0  0  0  0  0  0  0  0  0  0
    4.6869    0.3277    3.8158 H   0  0  0  0  0  0  0  0  0  0  0  0
    4.9107    0.5160    1.2753 H   0  0  0  0  0  0  0  0  0  0  0  0
    3.0888   -0.5123   -0.0270 H   0  0  0  0  0  0  0  0  0  0  0  0
    1.8920   -2.4944    0.9976 H   0  0  0  0  0  0  0  0  0  0  0  0
    2.6575   -3.2550    3.2250 H   0  0  0  0  0  0  0  0  0  0  0  0
    6.2536   -1.0890    2.7818 H   0  0  0  0  0  0  0  0  0  0  0  0
    5.8180   -5.0925   -0.4620 H   0  0  0  0  0  0  0  0  0  0  0  0
    7.4378   -4.6641    0.0812 H   0  0  0  0  0  0  0  0  0  0  0  0
    6.6426   -3.7163   -1.1732 H   0  0  0  0  0  0  0  0  0  0  0  0
    5.1634   -2.9224    3.7184 H   0  0  0  0  0  0  0  0  0  0  0  0
    3.6285   -1.4392    4.7236 H   0  0  0  0  0  0  0  0  0  0  0  0
  1  2  1  0
  1 31  1  0
  1 32  1  0
  1 33  1  0
  2  3  1  0
  3  4  2  0
  3  5  1  0
  5 34  1  0
  5 35  1  0
  5  6  1  0
  6 11  1  0
  6  7  1  0
  7  8  2  0
  7  9  1  0
  9 16  1  0
  9 36  1  1
  9 10  1  0
 10 13  1  0
 10 37  1  1
 10 11  1  0
 11 12  2  0
 13 30  1  0
 13 14  1  0
 13 38  1  1
 14 15  2  0
 14 39  1  0
 15 16  1  0
 15 40  1  0
 16 17  1  0
 16 41  1  6
 17 30  1  0
 17 18  1  0
 17 42  1  1
 18 19  1  0
 18 43  1  6
 18 23  1  0
 19 20  2  0
 19 44  1  0
 20 21  1  0
 20 45  1  0
 21 30  1  0
 21 46  1  1
 21 22  1  0
 22 23  1  0
 22 51  1  1
 22 28  1  0
 23 24  1  0
 23 47  1  1
 24 25  2  0
 24 26  1  0
 26 28  1  0
 26 27  1  0
 27 48  1  0
 27 49  1  0
 27 50  1  0
 28 29  2  0
 30 52  1  1
M  END
>  <i_m_ct_stereo_status>  (60) 
1

>  <s_m_source_file>  (60) 
/var/tmp/pbs.5076255.sched01/tmpsofmo5yl/0au1p7r3z.sdf

>  <i_m_source_file_index>  (60) 
25

>  <i_lp_mmshare_version>  (60) 
48012

>  <i_f3d_flags>  (60) 
0

>  <s_epik_input>  (60) 
W0NIM11PQyg9TylbQ0gyXW4oYzFbT0hdKWMoW09IXSljKGMxMilbQ0BASF0zW0NAQEhdNFtDQEhdKFtDQEhdMltDSF09W0NIXTMpW0NASF01YzZjKFtDQEBIXTRbQ0hdPVtDSF01KWMoW09IXSluKFtDSDNdKWM2W09IXQ==

>  <s_epik_cmdline>  (60) 
J2VwaWtfcHl0aG9uJywgJy1waHQnLCAnMi4wJywgJy1waCcsICc3LjAnLCAnLXRuJywgJzgnLCAnLW1hJywgJzIwMCcsICctaW1hZScsICc8aW5maWxlLm1hZT4nLCAnLW9tYWUnLCAnPG91dGZpbGUubWFlPic=

>  <r_lp_tautomer_probability>  (60) 
1

>  <r_epik_Ionization_Penalty>  (60) 
3.88762e-10

>  <r_epik_Ionization_Penalty_Charging>  (60) 
0

>  <r_epik_Ionization_Penalty_Neutral>  (60) 
3.88762e-10

>  <r_epik_State_Penalty>  (60) 
-0

>  <r_epik_Charging_Adjusted_Penalty>  (60) 
0

>  <i_epik_Tot_Q>  (60) 
0

>  <i_epik_Tot_abs_Q>  (60) 
0

>  <s_epik_Chemistry_Notes>  (60) 
This compound has an ester and may undergo hydrolysis at high or low pH.

>  <s_lp_Force_Field>  (60) 
OPLS3e

>  <r_lp_Energy>  (60) 
52.105

>  <b_lp_Chiralities_Consistent>  (60) 
1

>  <s_lp_Variant>  (60) 
17:0-4

>  <s_i_glide_gridfile>  (60) 
pfpi4k_grid

>  <i_i_glide_lignum>  (60) 
25

>  <i_i_glide_rotatable_bonds>  (60) 
3

>  <r_i_docking_score>  (60) 
-2.83298

>  <r_i_glide_ligand_efficiency>  (60) 
-0.0944325

>  <r_i_glide_ligand_efficiency_sa>  (60) 
-0.293424

>  <r_i_glide_ligand_efficiency_ln>  (60) 
-0.643683

>  <r_i_glide_gscore>  (60) 
-2.83298

>  <r_i_glide_lipo>  (60) 
-0.319269

>  <r_i_glide_hbond>  (60) 
-0.0722761

>  <r_i_glide_metal>  (60) 
-0

>  <r_i_glide_rewards>  (60) 
-0.904918

>  <r_i_glide_evdw>  (60) 
-25.6732

>  <r_i_glide_ecoul>  (60) 
-3.0345

>  <r_i_glide_erotb>  (60) 
0.233905

>  <r_i_glide_esite>  (60) 
-0.0315816

>  <r_i_glide_emodel>  (60) 
-34.0956

>  <r_i_glide_energy>  (60) 
-28.7077

>  <r_i_glide_einternal>  (60) 
0.406535

>  <r_i_glide_intrahb_reward>  (60) 
-0

>  <i_i_glide_confnum>  (60) 
1

>  <i_i_glide_posenum>  (60) 
6

>  <r_i_glide_eff_state_penalty>  (60) 
0

>  <ligand_id>  (60) 
17

>  <original_smiles>  (60) 
COC(=O)Cn1c(O)c2c(c1O)C1C=CC2C2C3C=CC(c4c3c(O)n(C)c4O)C12

>  <smiles>  (60) 
[H]C1=C([H])C2([H])C3([H])C(=O)N(C([H])([H])[H])C(=O)C3([H])C1([H])C1([H])C3([H])C([H])=C([H])C([H])(C4([H])C(=O)N(C([H])([H])C(=O)OC([H])([H])[H])C(=O)C43[H])C21[H]

$$$$
17:3:2
     RDKit          3D

 52 57  0  0  1  0  0  0  0  0999 V2000
   -5.5653    7.2671    1.6077 C   0  0  0  0  0  0  0  0  0  0  0  0
   -4.1925    6.9886    1.8303 O   0  0  0  0  0  0  0  0  0  0  0  0
   -3.8521    5.6989    2.0485 C   0  0  0  0  0  0  0  0  0  0  0  0
   -4.6478    4.7884    2.0499 O   0  0  0  0  0  0  0  0  0  0  0  0
   -2.3137    5.4955    2.2712 C   0  0  0  0  0  0  0  0  0  0  0  0
   -1.9498    4.3199    3.1111 N   0  0  0  0  0  0  0  0  0  0  0  0
   -1.0207    4.3564    4.0662 C   0  0  0  0  0  0  0  0  0  0  0  0
   -0.3962    5.3716    4.4211 O   0  0  0  0  0  0  0  0  0  0  0  0
   -0.8262    3.0142    4.7639 C   0  0  1  0  0  0  0  0  0  0  0  0
   -1.8070    2.1136    3.9733 C   0  0  1  0  0  0  0  0  0  0  0  0
   -2.3671    3.0708    2.9479 C   0  0  0  0  0  0  0  0  0  0  0  0
   -3.1572    2.6740    2.0805 O   0  0  0  0  0  0  0  0  0  0  0  0
   -1.0700    0.8794    3.3696 C   0  0  1  0  0  0  0  0  0  0  0  0
    0.0964    1.4053    2.5432 C   0  0  0  0  0  0  0  0  0  0  0  0
    0.9571    2.1845    3.2235 C   0  0  0  0  0  0  0  0  0  0  0  0
    0.6110    2.3954    4.6962 C   0  0  2  0  0  0  0  0  0  0  0  0
    0.4917    0.9981    5.3940 C   0  0  2  0  0  0  0  0  0  0  0  0
    1.8084    0.1988    5.6450 C   0  0  2  0  0  0  0  0  0  0  0  0
    2.3294   -0.3265    4.3107 C   0  0  0  0  0  0  0  0  0  0  0  0
    1.4641   -1.0984    3.6288 C   0  0  0  0  0  0  0  0  0  0  0  0
    0.1183   -1.3089    4.3143 C   0  0  1  0  0  0  0  0  0  0  0  0
    0.3847   -1.9277    5.7264 C   0  0  2  0  0  0  0  0  0  0  0  0
    1.3875   -1.0326    6.5173 C   0  0  1  0  0  0  0  0  0  0  0  0
    2.5090   -2.0127    6.8359 C   0  0  0  0  0  0  0  0  0  0  0  0
    3.5226   -1.6757    7.4782 O   0  0  0  0  0  0  0  0  0  0  0  0
    2.2513   -3.2360    6.3720 N   0  0  0  0  0  0  0  0  0  0  0  0
    3.1261   -4.3967    6.5767 C   0  0  0  0  0  0  0  0  0  0  0  0
    1.0895   -3.2774    5.7137 C   0  0  0  0  0  0  0  0  0  0  0  0
    0.5956   -4.2774    5.1609 O   0  0  0  0  0  0  0  0  0  0  0  0
   -0.5273    0.0844    4.5930 C   0  0  2  0  0  0  0  0  0  0  0  0
   -5.7137    8.3377    1.4572 H   0  0  0  0  0  0  0  0  0  0  0  0
   -6.1572    6.9377    2.4654 H   0  0  0  0  0  0  0  0  0  0  0  0
   -5.9224    6.7245    0.7289 H   0  0  0  0  0  0  0  0  0  0  0  0
   -1.7933    5.4380    1.3242 H   0  0  0  0  0  0  0  0  0  0  0  0
   -1.8219    6.3898    2.6354 H   0  0  0  0  0  0  0  0  0  0  0  0
   -1.1521    3.1312    5.8016 H   0  0  0  0  0  0  0  0  0  0  0  0
   -2.6067    1.7958    4.6341 H   0  0  0  0  0  0  0  0  0  0  0  0
   -1.7498    0.2915    2.7560 H   0  0  0  0  0  0  0  0  0  0  0  0
    0.1872    1.1649    1.4929 H   0  0  0  0  0  0  0  0  0  0  0  0
    1.8325    2.6389    2.7855 H   0  0  0  0  0  0  0  0  0  0  0  0
    1.3450    3.0394    5.1850 H   0  0  0  0  0  0  0  0  0  0  0  0
    0.0587    1.1911    6.3771 H   0  0  0  0  0  0  0  0  0  0  0  0
    2.5616    0.8095    6.1439 H   0  0  0  0  0  0  0  0  0  0  0  0
    3.3118   -0.0583    3.9530 H   0  0  0  0  0  0  0  0  0  0  0  0
    1.6662   -1.5217    2.6561 H   0  0  0  0  0  0  0  0  0  0  0  0
   -0.5280   -1.9470    3.7108 H   0  0  0  0  0  0  0  0  0  0  0  0
    0.9465   -0.7019    7.4597 H   0  0  0  0  0  0  0  0  0  0  0  0
    3.0441   -5.1101    5.7563 H   0  0  0  0  0  0  0  0  0  0  0  0
    2.8677   -4.9182    7.4999 H   0  0  0  0  0  0  0  0  0  0  0  0
    4.1739   -4.1013    6.6443 H   0  0  0  0  0  0  0  0  0  0  0  0
   -0.5498   -2.0378    6.2793 H   0  0  0  0  0  0  0  0  0  0  0  0
   -1.3916   -0.1010    5.2338 H   0  0  0  0  0  0  0  0  0  0  0  0
  1  2  1  0
  1 31  1  0
  1 32  1  0
  1 33  1  0
  2  3  1  0
  3  4  2  0
  3  5  1  0
  5 34  1  0
  5 35  1  0
  5  6  1  0
  6 11  1  0
  6  7  1  0
  7  8  2  0
  7  9  1  0
  9 16  1  0
  9 36  1  1
  9 10  1  0
 10 13  1  0
 10 37  1  1
 10 11  1  0
 11 12  2  0
 13 30  1  0
 13 14  1  0
 13 38  1  6
 14 15  2  0
 14 39  1  0
 15 16  1  0
 15 40  1  0
 16 17  1  0
 16 41  1  1
 17 30  1  0
 17 18  1  0
 17 42  1  1
 18 19  1  0
 18 43  1  1
 18 23  1  0
 19 20  2  0
 19 44  1  0
 20 21  1  0
 20 45  1  0
 21 30  1  0
 21 46  1  6
 21 22  1  0
 22 23  1  0
 22 51  1  1
 22 28  1  0
 23 24  1  0
 23 47  1  1
 24 25  2  0
 24 26  1  0
 26 28  1  0
 26 27  1  0
 27 48  1  0
 27 49  1  0
 27 50  1  0
 28 29  2  0
 30 52  1  1
M  END
>  <i_m_ct_stereo_status>  (61) 
1

>  <s_m_source_file>  (61) 
/var/tmp/pbs.5076255.sched01/tmpsofmo5yl/0au1p7r3z.sdf

>  <i_m_source_file_index>  (61) 
25

>  <i_lp_mmshare_version>  (61) 
48012

>  <i_f3d_flags>  (61) 
0

>  <s_epik_input>  (61) 
W0NIM11PQyg9TylbQ0gyXW4oYzFbT0hdKWMoW09IXSljKGMxMilbQ0BASF0zW0NAQEhdNFtDQEhdKFtDQEhdMltDSF09W0NIXTMpW0NASF01YzZjKFtDQEBIXTRbQ0hdPVtDSF01KWMoW09IXSluKFtDSDNdKWM2W09IXQ==

>  <s_epik_cmdline>  (61) 
J2VwaWtfcHl0aG9uJywgJy1waHQnLCAnMi4wJywgJy1waCcsICc3LjAnLCAnLXRuJywgJzgnLCAnLW1hJywgJzIwMCcsICctaW1hZScsICc8aW5maWxlLm1hZT4nLCAnLW9tYWUnLCAnPG91dGZpbGUubWFlPic=

>  <r_lp_tautomer_probability>  (61) 
1

>  <r_epik_Ionization_Penalty>  (61) 
3.88762e-10

>  <r_epik_Ionization_Penalty_Charging>  (61) 
0

>  <r_epik_Ionization_Penalty_Neutral>  (61) 
3.88762e-10

>  <r_epik_State_Penalty>  (61) 
-0

>  <r_epik_Charging_Adjusted_Penalty>  (61) 
0

>  <i_epik_Tot_Q>  (61) 
0

>  <i_epik_Tot_abs_Q>  (61) 
0

>  <s_epik_Chemistry_Notes>  (61) 
This compound has an ester and may undergo hydrolysis at high or low pH.

>  <s_lp_Force_Field>  (61) 
OPLS3e

>  <r_lp_Energy>  (61) 
52.105

>  <b_lp_Chiralities_Consistent>  (61) 
1

>  <s_lp_Variant>  (61) 
17:0-4

>  <s_i_glide_gridfile>  (61) 
pfpi4k_grid

>  <i_i_glide_lignum>  (61) 
25

>  <i_i_glide_rotatable_bonds>  (61) 
3

>  <r_i_docking_score>  (61) 
-1.51502

>  <r_i_glide_ligand_efficiency>  (61) 
-0.0505007

>  <r_i_glide_ligand_efficiency_sa>  (61) 
-0.156918

>  <r_i_glide_ligand_efficiency_ln>  (61) 
-0.34423

>  <r_i_glide_gscore>  (61) 
-1.51502

>  <r_i_glide_lipo>  (61) 
-0.177236

>  <r_i_glide_hbond>  (61) 
-0.0429317

>  <r_i_glide_metal>  (61) 
-0

>  <r_i_glide_rewards>  (61) 
-0.610774

>  <r_i_glide_evdw>  (61) 
-15.4066

>  <r_i_glide_ecoul>  (61) 
0.996432

>  <r_i_glide_erotb>  (61) 
0.233905

>  <r_i_glide_esite>  (61) 
-0.297122

>  <r_i_glide_emodel>  (61) 
-14.0494

>  <r_i_glide_energy>  (61) 
-14.4102

>  <r_i_glide_einternal>  (61) 
4.45249

>  <r_i_glide_intrahb_reward>  (61) 
-0

>  <i_i_glide_confnum>  (61) 
1

>  <i_i_glide_posenum>  (61) 
1

>  <r_i_glide_eff_state_penalty>  (61) 
0

>  <ligand_id>  (61) 
17

>  <original_smiles>  (61) 
COC(=O)Cn1c(O)c2c(c1O)C1C=CC2C2C3C=CC(c4c3c(O)n(C)c4O)C12

>  <smiles>  (61) 
[H]C1=C([H])C2([H])C3([H])C(=O)N(C([H])([H])[H])C(=O)C3([H])C1([H])C1([H])C3([H])C([H])=C([H])C([H])(C4([H])C(=O)N(C([H])([H])C(=O)OC([H])([H])[H])C(=O)C43[H])C21[H]

$$$$
18:0:0
     RDKit          3D

 18 19  0  0  1  0  0  0  0  0999 V2000
   -2.4244    2.9200    6.1568 C   0  0  0  0  0  0  0  0  0  0  0  0
   -1.7661    2.6043    4.8888 N   0  0  0  0  0  0  0  0  0  0  0  0
   -1.6814    3.4078    3.7996 C   0  0  0  0  0  0  0  0  0  0  0  0
   -2.1860    4.5240    3.6740 O   0  0  0  0  0  0  0  0  0  0  0  0
   -0.9358    2.7763    2.8841 N   0  0  0  0  0  0  0  0  0  0  0  0
   -0.5414    1.5359    3.3732 C   0  0  0  0  0  0  0  0  0  0  0  0
    0.2305    0.5264    2.7792 C   0  0  0  0  0  0  0  0  0  0  0  0
    0.4526   -0.6080    3.5961 C   0  0  0  0  0  0  0  0  0  0  0  0
   -0.1057   -0.6561    4.8987 C   0  0  0  0  0  0  0  0  0  0  0  0
   -0.8692    0.3251    5.4343 N   0  0  0  0  0  0  0  0  0  0  0  0
   -1.0604    1.4108    4.6504 C   0  0  0  0  0  0  0  0  0  0  0  0
   -2.9210    3.8915    6.1297 H   0  0  0  0  0  0  0  0  0  0  0  0
   -1.7012    2.9269    6.9731 H   0  0  0  0  0  0  0  0  0  0  0  0
   -3.1780    2.1734    6.3953 H   0  0  0  0  0  0  0  0  0  0  0  0
    0.6080    0.6176    1.7691 H   0  0  0  0  0  0  0  0  0  0  0  0
    1.0266   -1.4376    3.2199 H   0  0  0  0  0  0  0  0  0  0  0  0
    0.0568   -1.5233    5.5242 H   0  0  0  0  0  0  0  0  0  0  0  0
   -0.6387    3.1555    1.9883 H   0  0  0  0  0  0  0  0  0  0  0  0
  1  2  1  0
  1 12  1  0
  1 13  1  0
  1 14  1  0
  2 11  1  0
  2  3  1  0
  3  4  2  0
  3  5  1  0
  5  6  1  0
  5 18  1  0
  6 11  2  0
  6  7  1  0
  7  8  2  0
  7 15  1  0
  8  9  1  0
  8 16  1  0
  9 10  2  0
  9 17  1  0
 10 11  1  0
M  END
>  <i_m_ct_stereo_status>  (62) 
1

>  <s_m_source_file>  (62) 
/var/tmp/pbs.5076255.sched01/tmpsofmo5yl/0au1p7r3z.sdf

>  <i_m_source_file_index>  (62) 
26

>  <i_lp_mmshare_version>  (62) 
48012

>  <i_f3d_flags>  (62) 
0

>  <s_epik_input>  (62) 
W09IXWMobjEpbihbQ0gzXSljKGMxMiluW2NIXVtjSF1bY0hdMg==

>  <s_epik_cmdline>  (62) 
J2VwaWtfcHl0aG9uJywgJy1waHQnLCAnMi4wJywgJy1waCcsICc3LjAnLCAnLXRuJywgJzgnLCAnLW1hJywgJzIwMCcsICctaW1hZScsICc8aW5maWxlLm1hZT4nLCAnLW9tYWUnLCAnPG91dGZpbGUubWFlPic=

>  <r_lp_tautomer_probability>  (62) 
1

>  <r_epik_Ionization_Penalty>  (62) 
0.000165014

>  <r_epik_Ionization_Penalty_Charging>  (62) 
0.000165013

>  <r_epik_Ionization_Penalty_Neutral>  (62) 
9.60621e-10

>  <r_epik_State_Penalty>  (62) 
-0

>  <r_epik_Charging_Adjusted_Penalty>  (62) 
0.000165013

>  <i_epik_Tot_Q>  (62) 
0

>  <i_epik_Tot_abs_Q>  (62) 
0

>  <s_lp_Force_Field>  (62) 
OPLS3e

>  <r_lp_Energy>  (62) 
13.0045

>  <b_lp_Chiralities_Consistent>  (62) 
1

>  <s_lp_Variant>  (62) 
18:0-1

>  <s_i_glide_gridfile>  (62) 
pfpi4k_grid

>  <i_i_glide_lignum>  (62) 
26

>  <i_i_glide_rotatable_bonds>  (62) 
0

>  <r_i_docking_score>  (62) 
-4.59759

>  <r_i_glide_ligand_efficiency>  (62) 
-0.417963

>  <r_i_glide_ligand_efficiency_sa>  (62) 
-0.929541

>  <r_i_glide_ligand_efficiency_ln>  (62) 
-1.35307

>  <r_i_glide_gscore>  (62) 
-4.59759

>  <r_i_glide_lipo>  (62) 
-0.101883

>  <r_i_glide_hbond>  (62) 
-0.32

>  <r_i_glide_metal>  (62) 
-0

>  <r_i_glide_rewards>  (62) 
-2.25

>  <r_i_glide_evdw>  (62) 
-12.4462

>  <r_i_glide_ecoul>  (62) 
-7.56177

>  <r_i_glide_erotb>  (62) 
0

>  <r_i_glide_esite>  (62) 
-0.169132

>  <r_i_glide_emodel>  (62) 
-26.9557

>  <r_i_glide_energy>  (62) 
-20.008

>  <r_i_glide_einternal>  (62) 
0

>  <r_i_glide_intrahb_reward>  (62) 
-0

>  <i_i_glide_confnum>  (62) 
1

>  <i_i_glide_posenum>  (62) 
1

>  <r_i_glide_eff_state_penalty>  (62) 
0

>  <ligand_id>  (62) 
18

>  <original_smiles>  (62) 
Cn1c(O)nc2cccnc21

>  <smiles>  (62) 
[H]c1nc2c(c([H])c1[H])n([H])c(=O)n2C([H])([H])[H]

$$$$
18:0:1
     RDKit          3D

 18 19  0  0  1  0  0  0  0  0999 V2000
    5.1311   -4.1892   -0.1669 C   0  0  0  0  0  0  0  0  0  0  0  0
    5.0072   -2.8187   -0.6487 N   0  0  0  0  0  0  0  0  0  0  0  0
    5.4372   -1.7056   -0.0097 C   0  0  0  0  0  0  0  0  0  0  0  0
    6.0107   -1.6439    1.0718 O   0  0  0  0  0  0  0  0  0  0  0  0
    5.1418   -0.6628   -0.7922 N   0  0  0  0  0  0  0  0  0  0  0  0
    4.5123   -1.0900   -1.9546 C   0  0  0  0  0  0  0  0  0  0  0  0
    4.0149   -0.3734   -3.0555 C   0  0  0  0  0  0  0  0  0  0  0  0
    3.4239   -1.1504   -4.0720 C   0  0  0  0  0  0  0  0  0  0  0  0
    3.3650   -2.5584   -3.9173 C   0  0  0  0  0  0  0  0  0  0  0  0
    3.8730   -3.2242   -2.8512 N   0  0  0  0  0  0  0  0  0  0  0  0
    4.4206   -2.4670   -1.8797 C   0  0  0  0  0  0  0  0  0  0  0  0
    5.6228   -4.2350    0.8066 H   0  0  0  0  0  0  0  0  0  0  0  0
    5.7175   -4.7773   -0.8729 H   0  0  0  0  0  0  0  0  0  0  0  0
    4.1419   -4.6391   -0.0716 H   0  0  0  0  0  0  0  0  0  0  0  0
    4.0763    0.7054   -3.1128 H   0  0  0  0  0  0  0  0  0  0  0  0
    3.0021   -0.6801   -4.9480 H   0  0  0  0  0  0  0  0  0  0  0  0
    2.9120   -3.1695   -4.6789 H   0  0  0  0  0  0  0  0  0  0  0  0
    5.3210    0.3175   -0.5857 H   0  0  0  0  0  0  0  0  0  0  0  0
  1  2  1  0
  1 12  1  0
  1 13  1  0
  1 14  1  0
  2 11  1  0
  2  3  1  0
  3  4  2  0
  3  5  1  0
  5  6  1  0
  5 18  1  0
  6 11  2  0
  6  7  1  0
  7  8  2  0
  7 15  1  0
  8  9  1  0
  8 16  1  0
  9 10  2  0
  9 17  1  0
 10 11  1  0
M  END
>  <i_m_ct_stereo_status>  (63) 
1

>  <s_m_source_file>  (63) 
/var/tmp/pbs.5076255.sched01/tmpsofmo5yl/0au1p7r3z.sdf

>  <i_m_source_file_index>  (63) 
26

>  <i_lp_mmshare_version>  (63) 
48012

>  <i_f3d_flags>  (63) 
0

>  <s_epik_input>  (63) 
W09IXWMobjEpbihbQ0gzXSljKGMxMiluW2NIXVtjSF1bY0hdMg==

>  <s_epik_cmdline>  (63) 
J2VwaWtfcHl0aG9uJywgJy1waHQnLCAnMi4wJywgJy1waCcsICc3LjAnLCAnLXRuJywgJzgnLCAnLW1hJywgJzIwMCcsICctaW1hZScsICc8aW5maWxlLm1hZT4nLCAnLW9tYWUnLCAnPG91dGZpbGUubWFlPic=

>  <r_lp_tautomer_probability>  (63) 
1

>  <r_epik_Ionization_Penalty>  (63) 
0.000165014

>  <r_epik_Ionization_Penalty_Charging>  (63) 
0.000165013

>  <r_epik_Ionization_Penalty_Neutral>  (63) 
9.60621e-10

>  <r_epik_State_Penalty>  (63) 
-0

>  <r_epik_Charging_Adjusted_Penalty>  (63) 
0.000165013

>  <i_epik_Tot_Q>  (63) 
0

>  <i_epik_Tot_abs_Q>  (63) 
0

>  <s_lp_Force_Field>  (63) 
OPLS3e

>  <r_lp_Energy>  (63) 
13.0045

>  <b_lp_Chiralities_Consistent>  (63) 
1

>  <s_lp_Variant>  (63) 
18:0-1

>  <s_i_glide_gridfile>  (63) 
pfpi4k_grid

>  <i_i_glide_lignum>  (63) 
26

>  <i_i_glide_rotatable_bonds>  (63) 
0

>  <r_i_docking_score>  (63) 
-4.16956

>  <r_i_glide_ligand_efficiency>  (63) 
-0.379051

>  <r_i_glide_ligand_efficiency_sa>  (63) 
-0.843003

>  <r_i_glide_ligand_efficiency_ln>  (63) 
-1.2271

>  <r_i_glide_gscore>  (63) 
-4.16956

>  <r_i_glide_lipo>  (63) 
-0.453286

>  <r_i_glide_hbond>  (63) 
-0.32

>  <r_i_glide_metal>  (63) 
-0

>  <r_i_glide_rewards>  (63) 
-2.25144

>  <r_i_glide_evdw>  (63) 
-18.2988

>  <r_i_glide_ecoul>  (63) 
-1.17382

>  <r_i_glide_erotb>  (63) 
0

>  <r_i_glide_esite>  (63) 
-0.0538263

>  <r_i_glide_emodel>  (63) 
-25.7905

>  <r_i_glide_energy>  (63) 
-19.4726

>  <r_i_glide_einternal>  (63) 
0

>  <r_i_glide_intrahb_reward>  (63) 
-0

>  <i_i_glide_confnum>  (63) 
2

>  <i_i_glide_posenum>  (63) 
11

>  <r_i_glide_eff_state_penalty>  (63) 
0

>  <ligand_id>  (63) 
18

>  <original_smiles>  (63) 
Cn1c(O)nc2cccnc21

>  <smiles>  (63) 
[H]c1nc2c(c([H])c1[H])n([H])c(=O)n2C([H])([H])[H]

$$$$
18:0:2
     RDKit          3D

 18 19  0  0  1  0  0  0  0  0999 V2000
    7.6362   -2.6534   -0.9778 C   0  0  0  0  0  0  0  0  0  0  0  0
    6.2281   -2.2590   -1.0295 N   0  0  0  0  0  0  0  0  0  0  0  0
    5.5666   -1.4753   -0.1438 C   0  0  0  0  0  0  0  0  0  0  0  0
    6.0474   -0.9463    0.8532 O   0  0  0  0  0  0  0  0  0  0  0  0
    4.2929   -1.3600   -0.5545 N   0  0  0  0  0  0  0  0  0  0  0  0
    4.1276   -2.0870   -1.7311 C   0  0  0  0  0  0  0  0  0  0  0  0
    3.0044   -2.2768   -2.5462 C   0  0  0  0  0  0  0  0  0  0  0  0
    3.1914   -3.0902   -3.6809 C   0  0  0  0  0  0  0  0  0  0  0  0
    4.4634   -3.6639   -3.9110 C   0  0  0  0  0  0  0  0  0  0  0  0
    5.5435   -3.4538   -3.1175 N   0  0  0  0  0  0  0  0  0  0  0  0
    5.3428   -2.6725   -2.0408 C   0  0  0  0  0  0  0  0  0  0  0  0
    8.1481   -2.2326   -0.1092 H   0  0  0  0  0  0  0  0  0  0  0  0
    8.1667   -2.3287   -1.8765 H   0  0  0  0  0  0  0  0  0  0  0  0
    7.7185   -3.7399   -0.9108 H   0  0  0  0  0  0  0  0  0  0  0  0
    2.0435   -1.8485   -2.3205 H   0  0  0  0  0  0  0  0  0  0  0  0
    2.3560   -3.2976   -4.3339 H   0  0  0  0  0  0  0  0  0  0  0  0
    4.6207   -4.3019   -4.7657 H   0  0  0  0  0  0  0  0  0  0  0  0
    3.5541   -0.8325   -0.1065 H   0  0  0  0  0  0  0  0  0  0  0  0
  1  2  1  0
  1 12  1  0
  1 13  1  0
  1 14  1  0
  2 11  1  0
  2  3  1  0
  3  4  2  0
  3  5  1  0
  5  6  1  0
  5 18  1  0
  6 11  2  0
  6  7  1  0
  7  8  2  0
  7 15  1  0
  8  9  1  0
  8 16  1  0
  9 10  2  0
  9 17  1  0
 10 11  1  0
M  END
>  <i_m_ct_stereo_status>  (64) 
1

>  <s_m_source_file>  (64) 
/var/tmp/pbs.5076255.sched01/tmpsofmo5yl/0au1p7r3z.sdf

>  <i_m_source_file_index>  (64) 
26

>  <i_lp_mmshare_version>  (64) 
48012

>  <i_f3d_flags>  (64) 
0

>  <s_epik_input>  (64) 
W09IXWMobjEpbihbQ0gzXSljKGMxMiluW2NIXVtjSF1bY0hdMg==

>  <s_epik_cmdline>  (64) 
J2VwaWtfcHl0aG9uJywgJy1waHQnLCAnMi4wJywgJy1waCcsICc3LjAnLCAnLXRuJywgJzgnLCAnLW1hJywgJzIwMCcsICctaW1hZScsICc8aW5maWxlLm1hZT4nLCAnLW9tYWUnLCAnPG91dGZpbGUubWFlPic=

>  <r_lp_tautomer_probability>  (64) 
1

>  <r_epik_Ionization_Penalty>  (64) 
0.000165014

>  <r_epik_Ionization_Penalty_Charging>  (64) 
0.000165013

>  <r_epik_Ionization_Penalty_Neutral>  (64) 
9.60621e-10

>  <r_epik_State_Penalty>  (64) 
-0

>  <r_epik_Charging_Adjusted_Penalty>  (64) 
0.000165013

>  <i_epik_Tot_Q>  (64) 
0

>  <i_epik_Tot_abs_Q>  (64) 
0

>  <s_lp_Force_Field>  (64) 
OPLS3e

>  <r_lp_Energy>  (64) 
13.0045

>  <b_lp_Chiralities_Consistent>  (64) 
1

>  <s_lp_Variant>  (64) 
18:0-1

>  <s_i_glide_gridfile>  (64) 
pfpi4k_grid

>  <i_i_glide_lignum>  (64) 
26

>  <i_i_glide_rotatable_bonds>  (64) 
0

>  <r_i_docking_score>  (64) 
-3.71239

>  <r_i_glide_ligand_efficiency>  (64) 
-0.33749

>  <r_i_glide_ligand_efficiency_sa>  (64) 
-0.75057

>  <r_i_glide_ligand_efficiency_ln>  (64) 
-1.09255

>  <r_i_glide_gscore>  (64) 
-3.71239

>  <r_i_glide_lipo>  (64) 
-0.224966

>  <r_i_glide_hbond>  (64) 
0

>  <r_i_glide_metal>  (64) 
-0

>  <r_i_glide_rewards>  (64) 
-2.32055

>  <r_i_glide_evdw>  (64) 
-21.1205

>  <r_i_glide_ecoul>  (64) 
-0.0955323

>  <r_i_glide_erotb>  (64) 
0

>  <r_i_glide_esite>  (64) 
-0.096516

>  <r_i_glide_emodel>  (64) 
-26.8501

>  <r_i_glide_energy>  (64) 
-21.216

>  <r_i_glide_einternal>  (64) 
0

>  <r_i_glide_intrahb_reward>  (64) 
-0

>  <i_i_glide_confnum>  (64) 
1

>  <i_i_glide_posenum>  (64) 
2

>  <r_i_glide_eff_state_penalty>  (64) 
0

>  <ligand_id>  (64) 
18

>  <original_smiles>  (64) 
Cn1c(O)nc2cccnc21

>  <smiles>  (64) 
[H]c1nc2c(c([H])c1[H])n([H])c(=O)n2C([H])([H])[H]

$$$$
19:0:0
     RDKit          3D

 32 34  0  0  1  0  0  0  0  0999 V2000
    0.6394   -8.0929    2.7600 N   0  0  0  0  0  0  0  0  0  0  0  0
    1.6721   -7.2466    2.6752 C   0  0  0  0  0  0  0  0  0  0  0  0
    2.5905   -7.2119    3.6642 N   0  0  0  0  0  0  0  0  0  0  0  0
    3.6156   -6.3596    3.5762 C   0  0  0  0  0  0  0  0  0  0  0  0
    3.8901   -5.4759    2.6013 N   0  0  0  0  0  0  0  0  0  0  0  0
    2.9583   -5.5177    1.6070 C   0  0  0  0  0  0  0  0  0  0  0  0
    1.8320   -6.3770    1.5719 C   0  0  0  0  0  0  0  0  0  0  0  0
    1.1022   -6.1716    0.4227 N   0  0  0  0  0  0  0  0  0  0  0  0
    1.8058   -5.2784   -0.2203 C   0  0  0  0  0  0  0  0  0  0  0  0
    2.8924   -4.7617    0.4532 N   0  0  0  0  0  0  0  0  0  0  0  0
    3.8746   -3.7452   -0.0227 C   0  0  2  0  0  0  0  0  0  0  0  0
    4.1803   -2.8641    1.0185 O   0  0  0  0  0  0  0  0  0  0  0  0
    4.0689   -1.5036    0.5901 C   0  0  1  0  0  0  0  0  0  0  0  0
    5.2487   -0.6674    1.1180 C   0  0  0  0  0  0  0  0  0  0  0  0
    5.0293   -0.2648    2.4529 O   0  0  0  0  0  0  0  0  0  0  0  0
    3.9972   -1.5756   -0.9430 C   0  0  1  0  0  0  0  0  0  0  0  0
    5.3016   -1.6177   -1.5075 O   0  0  0  0  0  0  0  0  0  0  0  0
    3.2757   -2.8932   -1.1418 C   0  0  1  0  0  0  0  0  0  0  0  0
    3.4871   -3.4371   -2.4320 O   0  0  0  0  0  0  0  0  0  0  0  0
    0.5897   -8.7382    3.5331 H   0  0  0  0  0  0  0  0  0  0  0  0
    0.0104   -8.1655    1.9737 H   0  0  0  0  0  0  0  0  0  0  0  0
    4.3165   -6.3823    4.3980 H   0  0  0  0  0  0  0  0  0  0  0  0
    1.4583   -4.9278   -1.1840 H   0  0  0  0  0  0  0  0  0  0  0  0
    4.7640   -4.3104   -0.3015 H   0  0  0  0  0  0  0  0  0  0  0  0
    3.1165   -1.1148    0.9614 H   0  0  0  0  0  0  0  0  0  0  0  0
    6.1887   -1.2158    1.0335 H   0  0  0  0  0  0  0  0  0  0  0  0
    5.3500    0.2364    0.5170 H   0  0  0  0  0  0  0  0  0  0  0  0
    4.2283    0.2400    2.4827 H   0  0  0  0  0  0  0  0  0  0  0  0
    3.4356   -0.7373   -1.3648 H   0  0  0  0  0  0  0  0  0  0  0  0
    5.6792   -2.4508   -1.2691 H   0  0  0  0  0  0  0  0  0  0  0  0
    2.2205   -2.7037   -0.9361 H   0  0  0  0  0  0  0  0  0  0  0  0
    3.1962   -4.3468   -2.4508 H   0  0  0  0  0  0  0  0  0  0  0  0
  1  2  1  0
  1 21  1  0
  1 20  1  0
  2  3  2  0
  2  7  1  0
  3  4  1  0
  4 22  1  0
  4  5  2  0
  5  6  1  0
  6 10  1  0
  6  7  2  0
  7  8  1  0
  8  9  2  0
  9 23  1  0
  9 10  1  0
 10 11  1  0
 11 18  1  0
 11 12  1  0
 11 24  1  6
 12 13  1  0
 13 14  1  0
 13 16  1  0
 13 25  1  1
 14 15  1  0
 14 26  1  0
 14 27  1  0
 15 28  1  0
 16 17  1  0
 16 18  1  0
 16 29  1  6
 17 30  1  0
 18 19  1  0
 18 31  1  1
 19 32  1  0
M  END
>  <i_m_ct_stereo_status>  (65) 
1

>  <s_m_source_file>  (65) 
/var/tmp/pbs.5076255.sched01/tmpsofmo5yl/0au1p7r3z.sdf

>  <i_m_source_file_index>  (65) 
27

>  <i_lp_mmshare_version>  (65) 
48012

>  <i_f3d_flags>  (65) 
0

>  <s_epik_input>  (65) 
bjFbY0hdW25IXVxjKD1OXFtIXSljKGMxMiluW2NIXW4yW0NAQEhdM09bQ0BASF0oW0NIMl1bT0hdKVtDQEBIXShbT0hdKVtDQEhdM1tPSF0=

>  <s_epik_cmdline>  (65) 
J2VwaWtfcHl0aG9uJywgJy1waHQnLCAnMi4wJywgJy1waCcsICc3LjAnLCAnLXRuJywgJzgnLCAnLW1hJywgJzIwMCcsICctaW1hZScsICc8aW5maWxlLm1hZT4nLCAnLW9tYWUnLCAnPG91dGZpbGUubWFlPic=

>  <r_lp_tautomer_probability>  (65) 
1

>  <r_epik_Ionization_Penalty>  (65) 
0.000428445

>  <r_epik_Ionization_Penalty_Charging>  (65) 
0

>  <r_epik_Ionization_Penalty_Neutral>  (65) 
0.000428445

>  <r_epik_State_Penalty>  (65) 
-0

>  <r_epik_Charging_Adjusted_Penalty>  (65) 
0

>  <i_epik_Tot_Q>  (65) 
0

>  <i_epik_Tot_abs_Q>  (65) 
0

>  <s_epik_Chemistry_Notes>  (65) 
This compound contains an acetal/aminal-like group ( X-CH(R)-Y where X, Y are N, S, or O) that may be acid/base labile, releasing an aldehyde.

>  <s_lp_Force_Field>  (65) 
OPLS3e

>  <r_lp_Energy>  (65) 
18.2998

>  <b_lp_Chiralities_Consistent>  (65) 
1

>  <s_lp_Variant>  (65) 
19:0-1

>  <s_i_glide_gridfile>  (65) 
pfpi4k_grid

>  <i_i_glide_lignum>  (65) 
27

>  <i_i_glide_rotatable_bonds>  (65) 
5

>  <r_i_docking_score>  (65) 
-4.16285

>  <r_i_glide_ligand_efficiency>  (65) 
-0.219098

>  <r_i_glide_ligand_efficiency_sa>  (65) 
-0.58464

>  <r_i_glide_ligand_efficiency_ln>  (65) 
-1.05537

>  <r_i_glide_gscore>  (65) 
-4.16285

>  <r_i_glide_lipo>  (65) 
-0.142185

>  <r_i_glide_hbond>  (65) 
-0.203774

>  <r_i_glide_metal>  (65) 
-0

>  <r_i_glide_rewards>  (65) 
-1.58796

>  <r_i_glide_evdw>  (65) 
-15.8814

>  <r_i_glide_ecoul>  (65) 
-11.8119

>  <r_i_glide_erotb>  (65) 
0.499276

>  <r_i_glide_esite>  (65) 
-0.162363

>  <r_i_glide_emodel>  (65) 
-36.1462

>  <r_i_glide_energy>  (65) 
-27.6932

>  <r_i_glide_einternal>  (65) 
2.08758

>  <r_i_glide_intrahb_reward>  (65) 
-0

>  <i_i_glide_confnum>  (65) 
3

>  <i_i_glide_posenum>  (65) 
38

>  <r_i_glide_eff_state_penalty>  (65) 
0

>  <ligand_id>  (65) 
19

>  <original_smiles>  (65) 
N=c1[nH]cnc2c1ncn2C1OC(CO)C(O)C1O

>  <smiles>  (65) 
[H]OC([H])([H])C1([H])OC([H])(n2c([H])nc3c(N([H])[H])nc([H])nc32)C([H])(O[H])C1([H])O[H]

$$$$
19:0:1
     RDKit          3D

 32 34  0  0  1  0  0  0  0  0999 V2000
    7.8101   -6.5850    1.2906 N   0  0  0  0  0  0  0  0  0  0  0  0
    6.5100   -6.8206    1.4946 C   0  0  0  0  0  0  0  0  0  0  0  0
    5.6538   -5.7788    1.4356 N   0  0  0  0  0  0  0  0  0  0  0  0
    4.3475   -6.0024    1.6349 C   0  0  0  0  0  0  0  0  0  0  0  0
    3.7300   -7.1555    1.8953 N   0  0  0  0  0  0  0  0  0  0  0  0
    4.5955   -8.2075    1.9374 C   0  0  0  0  0  0  0  0  0  0  0  0
    6.0021   -8.1153    1.7463 C   0  0  0  0  0  0  0  0  0  0  0  0
    6.5789   -9.3778    1.8503 N   0  0  0  0  0  0  0  0  0  0  0  0
    5.5628  -10.1662    2.0733 C   0  0  0  0  0  0  0  0  0  0  0  0
    4.3350   -9.5425    2.1575 N   0  0  0  0  0  0  0  0  0  0  0  0
    3.0246  -10.2226    2.3846 C   0  0  2  0  0  0  0  0  0  0  0  0
    1.9655   -9.3634    2.0825 O   0  0  0  0  0  0  0  0  0  0  0  0
    1.0278   -9.3372    3.1584 C   0  0  1  0  0  0  0  0  0  0  0  0
   -0.4115   -9.2613    2.6089 C   0  0  0  0  0  0  0  0  0  0  0  0
   -1.3320   -8.9938    3.6519 O   0  0  0  0  0  0  0  0  0  0  0  0
    1.3771  -10.5653    4.0198 C   0  0  1  0  0  0  0  0  0  0  0  0
    0.7671  -11.7323    3.4776 O   0  0  0  0  0  0  0  0  0  0  0  0
    2.8860  -10.6384    3.8552 C   0  0  1  0  0  0  0  0  0  0  0  0
    3.3515  -11.9488    4.1010 O   0  0  0  0  0  0  0  0  0  0  0  0
    8.1116   -5.6386    1.1258 H   0  0  0  0  0  0  0  0  0  0  0  0
    8.4656   -7.3594    1.3401 H   0  0  0  0  0  0  0  0  0  0  0  0
    3.6985   -5.1366    1.5636 H   0  0  0  0  0  0  0  0  0  0  0  0
    5.6674  -11.2405    2.1875 H   0  0  0  0  0  0  0  0  0  0  0  0
    3.0181  -11.0490    1.6937 H   0  0  0  0  0  0  0  0  0  0  0  0
    1.2604   -8.4345    3.7265 H   0  0  0  0  0  0  0  0  0  0  0  0
   -0.4772   -8.4563    1.8752 H   0  0  0  0  0  0  0  0  0  0  0  0
   -0.6947  -10.1658    2.0676 H   0  0  0  0  0  0  0  0  0  0  0  0
   -1.4452   -9.7832    4.1827 H   0  0  0  0  0  0  0  0  0  0  0  0
    1.0840  -10.4444    5.0663 H   0  0  0  0  0  0  0  0  0  0  0  0
    1.0924  -12.4976    3.9288 H   0  0  0  0  0  0  0  0  0  0  0  0
    3.3871   -9.9015    4.4876 H   0  0  0  0  0  0  0  0  0  0  0  0
    2.9246  -12.5505    3.5054 H   0  0  0  0  0  0  0  0  0  0  0  0
  1  2  1  0
  1 21  1  0
  1 20  1  0
  2  3  2  0
  2  7  1  0
  3  4  1  0
  4 22  1  0
  4  5  2  0
  5  6  1  0
  6 10  1  0
  6  7  2  0
  7  8  1  0
  8  9  2  0
  9 23  1  0
  9 10  1  0
 10 11  1  0
 11 18  1  0
 11 12  1  0
 11 24  1  6
 12 13  1  0
 13 14  1  0
 13 16  1  0
 13 25  1  1
 14 15  1  0
 14 26  1  0
 14 27  1  0
 15 28  1  0
 16 17  1  0
 16 18  1  0
 16 29  1  1
 17 30  1  0
 18 19  1  0
 18 31  1  1
 19 32  1  0
M  END
>  <i_m_ct_stereo_status>  (66) 
1

>  <s_m_source_file>  (66) 
/var/tmp/pbs.5076255.sched01/tmpsofmo5yl/0au1p7r3z.sdf

>  <i_m_source_file_index>  (66) 
27

>  <i_lp_mmshare_version>  (66) 
48012

>  <i_f3d_flags>  (66) 
0

>  <s_epik_input>  (66) 
bjFbY0hdW25IXVxjKD1OXFtIXSljKGMxMiluW2NIXW4yW0NAQEhdM09bQ0BASF0oW0NIMl1bT0hdKVtDQEBIXShbT0hdKVtDQEhdM1tPSF0=

>  <s_epik_cmdline>  (66) 
J2VwaWtfcHl0aG9uJywgJy1waHQnLCAnMi4wJywgJy1waCcsICc3LjAnLCAnLXRuJywgJzgnLCAnLW1hJywgJzIwMCcsICctaW1hZScsICc8aW5maWxlLm1hZT4nLCAnLW9tYWUnLCAnPG91dGZpbGUubWFlPic=

>  <r_lp_tautomer_probability>  (66) 
1

>  <r_epik_Ionization_Penalty>  (66) 
0.000428445

>  <r_epik_Ionization_Penalty_Charging>  (66) 
0

>  <r_epik_Ionization_Penalty_Neutral>  (66) 
0.000428445

>  <r_epik_State_Penalty>  (66) 
-0

>  <r_epik_Charging_Adjusted_Penalty>  (66) 
0

>  <i_epik_Tot_Q>  (66) 
0

>  <i_epik_Tot_abs_Q>  (66) 
0

>  <s_epik_Chemistry_Notes>  (66) 
This compound contains an acetal/aminal-like group ( X-CH(R)-Y where X, Y are N, S, or O) that may be acid/base labile, releasing an aldehyde.

>  <s_lp_Force_Field>  (66) 
OPLS3e

>  <r_lp_Energy>  (66) 
18.2998

>  <b_lp_Chiralities_Consistent>  (66) 
1

>  <s_lp_Variant>  (66) 
19:0-1

>  <s_i_glide_gridfile>  (66) 
pfpi4k_grid

>  <i_i_glide_lignum>  (66) 
27

>  <i_i_glide_rotatable_bonds>  (66) 
5

>  <r_i_docking_score>  (66) 
-3.92563

>  <r_i_glide_ligand_efficiency>  (66) 
-0.206612

>  <r_i_glide_ligand_efficiency_sa>  (66) 
-0.551324

>  <r_i_glide_ligand_efficiency_ln>  (66) 
-0.995232

>  <r_i_glide_gscore>  (66) 
-3.92563

>  <r_i_glide_lipo>  (66) 
-0.195757

>  <r_i_glide_hbond>  (66) 
-0.00373387

>  <r_i_glide_metal>  (66) 
-0

>  <r_i_glide_rewards>  (66) 
-1.64771

>  <r_i_glide_evdw>  (66) 
-19.888

>  <r_i_glide_ecoul>  (66) 
-9.27148

>  <r_i_glide_erotb>  (66) 
0.499276

>  <r_i_glide_esite>  (66) 
-0.192582

>  <r_i_glide_emodel>  (66) 
-37.2661

>  <r_i_glide_energy>  (66) 
-29.1595

>  <r_i_glide_einternal>  (66) 
2.49117

>  <r_i_glide_intrahb_reward>  (66) 
-0

>  <i_i_glide_confnum>  (66) 
6

>  <i_i_glide_posenum>  (66) 
2

>  <r_i_glide_eff_state_penalty>  (66) 
0

>  <ligand_id>  (66) 
19

>  <original_smiles>  (66) 
N=c1[nH]cnc2c1ncn2C1OC(CO)C(O)C1O

>  <smiles>  (66) 
[H]OC([H])([H])C1([H])OC([H])(n2c([H])nc3c(N([H])[H])nc([H])nc32)C([H])(O[H])C1([H])O[H]

$$$$
19:0:2
     RDKit          3D

 32 34  0  0  1  0  0  0  0  0999 V2000
    7.8095   -7.0506    1.3335 N   0  0  0  0  0  0  0  0  0  0  0  0
    6.5208   -7.2123    1.6533 C   0  0  0  0  0  0  0  0  0  0  0  0
    5.7059   -6.1380    1.6038 N   0  0  0  0  0  0  0  0  0  0  0  0
    4.4123   -6.2851    1.9207 C   0  0  0  0  0  0  0  0  0  0  0  0
    3.7636   -7.3930    2.2893 N   0  0  0  0  0  0  0  0  0  0  0  0
    4.5834   -8.4842    2.3072 C   0  0  0  0  0  0  0  0  0  0  0  0
    5.9762   -8.4676    2.0085 C   0  0  0  0  0  0  0  0  0  0  0  0
    6.5023   -9.7504    2.1380 N   0  0  0  0  0  0  0  0  0  0  0  0
    5.4689  -10.4816    2.4674 C   0  0  0  0  0  0  0  0  0  0  0  0
    4.2760   -9.7988    2.5917 N   0  0  0  0  0  0  0  0  0  0  0  0
    2.9552  -10.3823    2.9698 C   0  0  2  0  0  0  0  0  0  0  0  0
    1.9341   -9.6513    2.3625 O   0  0  0  0  0  0  0  0  0  0  0  0
    0.9387   -9.2949    3.3276 C   0  0  1  0  0  0  0  0  0  0  0  0
   -0.4667   -9.4172    2.7104 C   0  0  0  0  0  0  0  0  0  0  0  0
   -1.4595   -9.0239    3.6460 O   0  0  0  0  0  0  0  0  0  0  0  0
    1.2348  -10.1801    4.5523 C   0  0  1  0  0  0  0  0  0  0  0  0
    0.6101  -11.4484    4.4318 O   0  0  0  0  0  0  0  0  0  0  0  0
    2.7497  -10.3019    4.4894 C   0  0  1  0  0  0  0  0  0  0  0  0
    3.2049  -11.4428    5.1981 O   0  0  0  0  0  0  0  0  0  0  0  0
    8.1409   -6.1344    1.0866 H   0  0  0  0  0  0  0  0  0  0  0  0
    8.4388   -7.8463    1.3731 H   0  0  0  0  0  0  0  0  0  0  0  0
    3.8045   -5.3913    1.8493 H   0  0  0  0  0  0  0  0  0  0  0  0
    5.5379  -11.5490    2.6334 H   0  0  0  0  0  0  0  0  0  0  0  0
    2.9496  -11.3916    2.5566 H   0  0  0  0  0  0  0  0  0  0  0  0
    1.1382   -8.2552    3.6001 H   0  0  0  0  0  0  0  0  0  0  0  0
   -0.5385   -8.7766    1.8316 H   0  0  0  0  0  0  0  0  0  0  0  0
   -0.6320  -10.4289    2.3477 H   0  0  0  0  0  0  0  0  0  0  0  0
   -1.6385   -9.7480    4.2496 H   0  0  0  0  0  0  0  0  0  0  0  0
    0.9015   -9.7196    5.4847 H   0  0  0  0  0  0  0  0  0  0  0  0
   -0.3297  -11.3555    4.5805 H   0  0  0  0  0  0  0  0  0  0  0  0
    3.2151   -9.3934    4.8756 H   0  0  0  0  0  0  0  0  0  0  0  0
    2.6025  -11.6367    5.9084 H   0  0  0  0  0  0  0  0  0  0  0  0
  1  2  1  0
  1 21  1  0
  1 20  1  0
  2  3  2  0
  2  7  1  0
  3  4  1  0
  4 22  1  0
  4  5  2  0
  5  6  1  0
  6 10  1  0
  6  7  2  0
  7  8  1  0
  8  9  2  0
  9 23  1  0
  9 10  1  0
 10 11  1  0
 11 18  1  0
 11 12  1  0
 11 24  1  6
 12 13  1  0
 13 14  1  0
 13 16  1  0
 13 25  1  1
 14 15  1  0
 14 26  1  0
 14 27  1  0
 15 28  1  0
 16 17  1  0
 16 18  1  0
 16 29  1  1
 17 30  1  0
 18 19  1  0
 18 31  1  1
 19 32  1  0
M  END
>  <i_m_ct_stereo_status>  (67) 
1

>  <s_m_source_file>  (67) 
/var/tmp/pbs.5076255.sched01/tmpsofmo5yl/0au1p7r3z.sdf

>  <i_m_source_file_index>  (67) 
27

>  <i_lp_mmshare_version>  (67) 
48012

>  <i_f3d_flags>  (67) 
0

>  <s_epik_input>  (67) 
bjFbY0hdW25IXVxjKD1OXFtIXSljKGMxMiluW2NIXW4yW0NAQEhdM09bQ0BASF0oW0NIMl1bT0hdKVtDQEBIXShbT0hdKVtDQEhdM1tPSF0=

>  <s_epik_cmdline>  (67) 
J2VwaWtfcHl0aG9uJywgJy1waHQnLCAnMi4wJywgJy1waCcsICc3LjAnLCAnLXRuJywgJzgnLCAnLW1hJywgJzIwMCcsICctaW1hZScsICc8aW5maWxlLm1hZT4nLCAnLW9tYWUnLCAnPG91dGZpbGUubWFlPic=

>  <r_lp_tautomer_probability>  (67) 
1

>  <r_epik_Ionization_Penalty>  (67) 
0.000428445

>  <r_epik_Ionization_Penalty_Charging>  (67) 
0

>  <r_epik_Ionization_Penalty_Neutral>  (67) 
0.000428445

>  <r_epik_State_Penalty>  (67) 
-0

>  <r_epik_Charging_Adjusted_Penalty>  (67) 
0

>  <i_epik_Tot_Q>  (67) 
0

>  <i_epik_Tot_abs_Q>  (67) 
0

>  <s_epik_Chemistry_Notes>  (67) 
This compound contains an acetal/aminal-like group ( X-CH(R)-Y where X, Y are N, S, or O) that may be acid/base labile, releasing an aldehyde.

>  <s_lp_Force_Field>  (67) 
OPLS3e

>  <r_lp_Energy>  (67) 
18.2998

>  <b_lp_Chiralities_Consistent>  (67) 
1

>  <s_lp_Variant>  (67) 
19:0-1

>  <s_i_glide_gridfile>  (67) 
pfpi4k_grid

>  <i_i_glide_lignum>  (67) 
27

>  <i_i_glide_rotatable_bonds>  (67) 
5

>  <r_i_docking_score>  (67) 
-3.84522

>  <r_i_glide_ligand_efficiency>  (67) 
-0.20238

>  <r_i_glide_ligand_efficiency_sa>  (67) 
-0.540032

>  <r_i_glide_ligand_efficiency_ln>  (67) 
-0.974847

>  <r_i_glide_gscore>  (67) 
-3.84522

>  <r_i_glide_lipo>  (67) 
-0.140289

>  <r_i_glide_hbond>  (67) 
-0.010129

>  <r_i_glide_metal>  (67) 
-0

>  <r_i_glide_rewards>  (67) 
-1.62957

>  <r_i_glide_evdw>  (67) 
-19.7499

>  <r_i_glide_ecoul>  (67) 
-9.29844

>  <r_i_glide_erotb>  (67) 
0.499276

>  <r_i_glide_esite>  (67) 
-0.182252

>  <r_i_glide_emodel>  (67) 
-36.7757

>  <r_i_glide_energy>  (67) 
-29.0483

>  <r_i_glide_einternal>  (67) 
2.51135

>  <r_i_glide_intrahb_reward>  (67) 
-0

>  <i_i_glide_confnum>  (67) 
6

>  <i_i_glide_posenum>  (67) 
18

>  <r_i_glide_eff_state_penalty>  (67) 
0

>  <ligand_id>  (67) 
19

>  <original_smiles>  (67) 
N=c1[nH]cnc2c1ncn2C1OC(CO)C(O)C1O

>  <smiles>  (67) 
[H]OC([H])([H])C1([H])OC([H])(n2c([H])nc3c(N([H])[H])nc([H])nc32)C([H])(O[H])C1([H])O[H]

$$$$
20:0:0
     RDKit          3D

 21 22  0  0  1  0  0  0  0  0999 V2000
    4.4984   -4.1824    1.9195 C   0  0  0  0  0  0  0  0  0  0  0  0
    4.2323   -3.6624    0.5832 N   0  0  0  0  0  0  0  0  0  0  0  0
    3.1650   -3.9126   -0.1990 C   0  0  0  0  0  0  0  0  0  0  0  0
    2.2172   -4.6699    0.0005 O   0  0  0  0  0  0  0  0  0  0  0  0
    3.3551   -3.0547   -1.3824 C   0  0  0  0  0  0  0  0  0  0  0  0
    2.5602   -2.9223   -2.5259 C   0  0  0  0  0  0  0  0  0  0  0  0
    3.0218   -1.9908   -3.4818 C   0  0  0  0  0  0  0  0  0  0  0  0
    4.2228   -1.2873   -3.2344 C   0  0  0  0  0  0  0  0  0  0  0  0
    4.9889   -1.4345   -2.1196 N   0  0  0  0  0  0  0  0  0  0  0  0
    4.5040   -2.3079   -1.2162 C   0  0  0  0  0  0  0  0  0  0  0  0
    5.0091   -2.5989    0.0524 N   0  0  0  0  0  0  0  0  0  0  0  0
    6.4491   -2.6681    0.2899 C   0  0  0  0  0  0  0  0  0  0  0  0
    3.7195   -4.8737    2.2397 H   0  0  0  0  0  0  0  0  0  0  0  0
    4.5397   -3.3669    2.6426 H   0  0  0  0  0  0  0  0  0  0  0  0
    5.4475   -4.7199    1.9540 H   0  0  0  0  0  0  0  0  0  0  0  0
    1.6396   -3.4693   -2.6570 H   0  0  0  0  0  0  0  0  0  0  0  0
    2.4528   -1.8024   -4.3761 H   0  0  0  0  0  0  0  0  0  0  0  0
    4.5908   -0.5824   -3.9627 H   0  0  0  0  0  0  0  0  0  0  0  0
    6.9557   -1.8085   -0.1497 H   0  0  0  0  0  0  0  0  0  0  0  0
    6.8953   -3.5850   -0.1006 H   0  0  0  0  0  0  0  0  0  0  0  0
    6.6382   -2.6274    1.3632 H   0  0  0  0  0  0  0  0  0  0  0  0
  1  2  1  0
  1 13  1  0
  1 14  1  0
  1 15  1  0
  2 11  1  0
  2  3  1  0
  3  4  2  0
  3  5  1  0
  5 10  2  0
  5  6  1  0
  6  7  2  0
  6 16  1  0
  7  8  1  0
  7 17  1  0
  8  9  2  0
  8 18  1  0
  9 10  1  0
 10 11  1  0
 11 12  1  0
 12 19  1  0
 12 20  1  0
 12 21  1  0
M  END
>  <i_m_ct_stereo_status>  (68) 
1

>  <s_m_source_file>  (68) 
/var/tmp/pbs.5076255.sched01/tmpsofmo5yl/0au1p7r3z.sdf

>  <i_m_source_file_index>  (68) 
28

>  <i_lp_mmshare_version>  (68) 
48012

>  <i_f3d_flags>  (68) 
0

>  <s_epik_input>  (68) 
Tz1jMW4oW0NIM10pbihbQ0gzXSljKGMxMiluW2NIXVtjSF1bY0hdMg==

>  <s_epik_cmdline>  (68) 
J2VwaWtfcHl0aG9uJywgJy1waHQnLCAnMi4wJywgJy1waCcsICc3LjAnLCAnLXRuJywgJzgnLCAnLW1hJywgJzIwMCcsICctaW1hZScsICc8aW5maWxlLm1hZT4nLCAnLW9tYWUnLCAnPG91dGZpbGUubWFlPic=

>  <r_lp_tautomer_probability>  (68) 
1

>  <r_epik_Ionization_Penalty>  (68) 
1.66926e-07

>  <r_epik_Ionization_Penalty_Charging>  (68) 
8.41294e-08

>  <r_epik_Ionization_Penalty_Neutral>  (68) 
8.27961e-08

>  <r_epik_State_Penalty>  (68) 
-0

>  <r_epik_Charging_Adjusted_Penalty>  (68) 
8.41294e-08

>  <i_epik_Tot_Q>  (68) 
0

>  <i_epik_Tot_abs_Q>  (68) 
0

>  <s_lp_Force_Field>  (68) 
OPLS3e

>  <r_lp_Energy>  (68) 
19.8275

>  <b_lp_Chiralities_Consistent>  (68) 
1

>  <s_lp_Variant>  (68) 
20:0-1

>  <s_i_glide_gridfile>  (68) 
pfpi4k_grid

>  <i_i_glide_lignum>  (68) 
28

>  <i_i_glide_rotatable_bonds>  (68) 
0

>  <r_i_docking_score>  (68) 
-3.73352

>  <r_i_glide_ligand_efficiency>  (68) 
-0.311127

>  <r_i_glide_ligand_efficiency_sa>  (68) 
-0.712303

>  <r_i_glide_ligand_efficiency_ln>  (68) 
-1.07134

>  <r_i_glide_gscore>  (68) 
-3.73352

>  <r_i_glide_lipo>  (68) 
-0.364031

>  <r_i_glide_hbond>  (68) 
-0.00534965

>  <r_i_glide_metal>  (68) 
-0

>  <r_i_glide_rewards>  (68) 
-2.29197

>  <r_i_glide_evdw>  (68) 
-17.6669

>  <r_i_glide_ecoul>  (68) 
-1.11033

>  <r_i_glide_erotb>  (68) 
0

>  <r_i_glide_esite>  (68) 
-0.0222712

>  <r_i_glide_emodel>  (68) 
-23.1204

>  <r_i_glide_energy>  (68) 
-18.7772

>  <r_i_glide_einternal>  (68) 
0

>  <r_i_glide_intrahb_reward>  (68) 
-0

>  <i_i_glide_confnum>  (68) 
2

>  <i_i_glide_posenum>  (68) 
1

>  <r_i_glide_eff_state_penalty>  (68) 
0

>  <ligand_id>  (68) 
20

>  <original_smiles>  (68) 
Cn1c(=O)c2cccnc2n1C

>  <smiles>  (68) 
[H]c1nc2c(c([H])c1[H])c(=O)n(C([H])([H])[H])n2C([H])([H])[H]

$$$$
20:0:1
     RDKit          3D

 21 22  0  0  1  0  0  0  0  0999 V2000
    1.6237   -4.2990    6.2666 C   0  0  0  0  0  0  0  0  0  0  0  0
    1.0164   -5.3466    5.4497 N   0  0  0  0  0  0  0  0  0  0  0  0
    0.3812   -6.4562    5.8774 C   0  0  0  0  0  0  0  0  0  0  0  0
    0.2203   -6.8727    7.0224 O   0  0  0  0  0  0  0  0  0  0  0  0
   -0.1291   -7.0910    4.6423 C   0  0  0  0  0  0  0  0  0  0  0  0
   -0.8691   -8.2663    4.4799 C   0  0  0  0  0  0  0  0  0  0  0  0
   -1.1859   -8.6154    3.1491 C   0  0  0  0  0  0  0  0  0  0  0  0
   -0.7329   -7.7910    2.0920 C   0  0  0  0  0  0  0  0  0  0  0  0
   -0.0422   -6.6343    2.2711 N   0  0  0  0  0  0  0  0  0  0  0  0
    0.2410   -6.3284    3.5545 C   0  0  0  0  0  0  0  0  0  0  0  0
    0.8590   -5.1759    4.0475 N   0  0  0  0  0  0  0  0  0  0  0  0
    1.9813   -4.5657    3.3410 C   0  0  0  0  0  0  0  0  0  0  0  0
    1.5245   -4.5168    7.3289 H   0  0  0  0  0  0  0  0  0  0  0  0
    1.1418   -3.3387    6.0768 H   0  0  0  0  0  0  0  0  0  0  0  0
    2.6887   -4.1959    6.0533 H   0  0  0  0  0  0  0  0  0  0  0  0
   -1.1852   -8.8700    5.3175 H   0  0  0  0  0  0  0  0  0  0  0  0
   -1.7576   -9.5063    2.9474 H   0  0  0  0  0  0  0  0  0  0  0  0
   -0.9687   -8.0425    1.0696 H   0  0  0  0  0  0  0  0  0  0  0  0
    1.7658   -4.4705    2.2764 H   0  0  0  0  0  0  0  0  0  0  0  0
    2.9108   -5.1266    3.4669 H   0  0  0  0  0  0  0  0  0  0  0  0
    2.1416   -3.5550    3.7204 H   0  0  0  0  0  0  0  0  0  0  0  0
  1  2  1  0
  1 13  1  0
  1 14  1  0
  1 15  1  0
  2 11  1  0
  2  3  1  0
  3  4  2  0
  3  5  1  0
  5 10  2  0
  5  6  1  0
  6  7  2  0
  6 16  1  0
  7  8  1  0
  7 17  1  0
  8  9  2  0
  8 18  1  0
  9 10  1  0
 10 11  1  0
 11 12  1  0
 12 19  1  0
 12 20  1  0
 12 21  1  0
M  END
>  <i_m_ct_stereo_status>  (69) 
1

>  <s_m_source_file>  (69) 
/var/tmp/pbs.5076255.sched01/tmpsofmo5yl/0au1p7r3z.sdf

>  <i_m_source_file_index>  (69) 
28

>  <i_lp_mmshare_version>  (69) 
48012

>  <i_f3d_flags>  (69) 
0

>  <s_epik_input>  (69) 
Tz1jMW4oW0NIM10pbihbQ0gzXSljKGMxMiluW2NIXVtjSF1bY0hdMg==

>  <s_epik_cmdline>  (69) 
J2VwaWtfcHl0aG9uJywgJy1waHQnLCAnMi4wJywgJy1waCcsICc3LjAnLCAnLXRuJywgJzgnLCAnLW1hJywgJzIwMCcsICctaW1hZScsICc8aW5maWxlLm1hZT4nLCAnLW9tYWUnLCAnPG91dGZpbGUubWFlPic=

>  <r_lp_tautomer_probability>  (69) 
1

>  <r_epik_Ionization_Penalty>  (69) 
1.66926e-07

>  <r_epik_Ionization_Penalty_Charging>  (69) 
8.41294e-08

>  <r_epik_Ionization_Penalty_Neutral>  (69) 
8.27961e-08

>  <r_epik_State_Penalty>  (69) 
-0

>  <r_epik_Charging_Adjusted_Penalty>  (69) 
8.41294e-08

>  <i_epik_Tot_Q>  (69) 
0

>  <i_epik_Tot_abs_Q>  (69) 
0

>  <s_lp_Force_Field>  (69) 
OPLS3e

>  <r_lp_Energy>  (69) 
19.8275

>  <b_lp_Chiralities_Consistent>  (69) 
1

>  <s_lp_Variant>  (69) 
20:0-1

>  <s_i_glide_gridfile>  (69) 
pfpi4k_grid

>  <i_i_glide_lignum>  (69) 
28

>  <i_i_glide_rotatable_bonds>  (69) 
0

>  <r_i_docking_score>  (69) 
-3.68529

>  <r_i_glide_ligand_efficiency>  (69) 
-0.307108

>  <r_i_glide_ligand_efficiency_sa>  (69) 
-0.703101

>  <r_i_glide_ligand_efficiency_ln>  (69) 
-1.0575

>  <r_i_glide_gscore>  (69) 
-3.68529

>  <r_i_glide_lipo>  (69) 
0

>  <r_i_glide_hbond>  (69) 
-0.159809

>  <r_i_glide_metal>  (69) 
-0

>  <r_i_glide_rewards>  (69) 
-2.25

>  <r_i_glide_evdw>  (69) 
-12.6464

>  <r_i_glide_ecoul>  (69) 
-3.8178

>  <r_i_glide_erotb>  (69) 
0

>  <r_i_glide_esite>  (69) 
-0.070494

>  <r_i_glide_emodel>  (69) 
-20.816

>  <r_i_glide_energy>  (69) 
-16.4642

>  <r_i_glide_einternal>  (69) 
0

>  <r_i_glide_intrahb_reward>  (69) 
-0

>  <i_i_glide_confnum>  (69) 
2

>  <i_i_glide_posenum>  (69) 
39

>  <r_i_glide_eff_state_penalty>  (69) 
0

>  <ligand_id>  (69) 
20

>  <original_smiles>  (69) 
Cn1c(=O)c2cccnc2n1C

>  <smiles>  (69) 
[H]c1nc2c(c([H])c1[H])c(=O)n(C([H])([H])[H])n2C([H])([H])[H]

$$$$
20:0:2
     RDKit          3D

 21 22  0  0  1  0  0  0  0  0999 V2000
   -0.1964   -3.2409    5.9695 C   0  0  0  0  0  0  0  0  0  0  0  0
   -0.1993   -2.0884    5.0766 N   0  0  0  0  0  0  0  0  0  0  0  0
   -1.1104   -1.0915    5.0176 C   0  0  0  0  0  0  0  0  0  0  0  0
   -2.1755   -0.9653    5.6204 O   0  0  0  0  0  0  0  0  0  0  0  0
   -0.5451   -0.1391    4.0392 C   0  0  0  0  0  0  0  0  0  0  0  0
   -1.0813    1.0541    3.5443 C   0  0  0  0  0  0  0  0  0  0  0  0
   -0.3065    1.7104    2.5642 C   0  0  0  0  0  0  0  0  0  0  0  0
    0.9167    1.1319    2.1410 C   0  0  0  0  0  0  0  0  0  0  0  0
    1.4212   -0.0268    2.6437 N   0  0  0  0  0  0  0  0  0  0  0  0
    0.6747   -0.6137    3.5892 C   0  0  0  0  0  0  0  0  0  0  0  0
    0.9494   -1.7759    4.3051 N   0  0  0  0  0  0  0  0  0  0  0  0
    1.6361   -2.8975    3.6727 C   0  0  0  0  0  0  0  0  0  0  0  0
   -1.0799   -3.2602    6.6047 H   0  0  0  0  0  0  0  0  0  0  0  0
    0.6786   -3.2218    6.6175 H   0  0  0  0  0  0  0  0  0  0  0  0
   -0.1783   -4.1773    5.4120 H   0  0  0  0  0  0  0  0  0  0  0  0
   -2.0307    1.4397    3.8874 H   0  0  0  0  0  0  0  0  0  0  0  0
   -0.6284    2.6453    2.1349 H   0  0  0  0  0  0  0  0  0  0  0  0
    1.5158    1.6277    1.3965 H   0  0  0  0  0  0  0  0  0  0  0  0
    2.4992   -2.5491    3.0981 H   0  0  0  0  0  0  0  0  0  0  0  0
    0.9863   -3.4751    3.0072 H   0  0  0  0  0  0  0  0  0  0  0  0
    2.0203   -3.5697    4.4400 H   0  0  0  0  0  0  0  0  0  0  0  0
  1  2  1  0
  1 13  1  0
  1 14  1  0
  1 15  1  0
  2 11  1  0
  2  3  1  0
  3  4  2  0
  3  5  1  0
  5 10  2  0
  5  6  1  0
  6  7  2  0
  6 16  1  0
  7  8  1  0
  7 17  1  0
  8  9  2  0
  8 18  1  0
  9 10  1  0
 10 11  1  0
 11 12  1  0
 12 19  1  0
 12 20  1  0
 12 21  1  0
M  END
>  <i_m_ct_stereo_status>  (70) 
1

>  <s_m_source_file>  (70) 
/var/tmp/pbs.5076255.sched01/tmpsofmo5yl/0au1p7r3z.sdf

>  <i_m_source_file_index>  (70) 
28

>  <i_lp_mmshare_version>  (70) 
48012

>  <i_f3d_flags>  (70) 
0

>  <s_epik_input>  (70) 
Tz1jMW4oW0NIM10pbihbQ0gzXSljKGMxMiluW2NIXVtjSF1bY0hdMg==

>  <s_epik_cmdline>  (70) 
J2VwaWtfcHl0aG9uJywgJy1waHQnLCAnMi4wJywgJy1waCcsICc3LjAnLCAnLXRuJywgJzgnLCAnLW1hJywgJzIwMCcsICctaW1hZScsICc8aW5maWxlLm1hZT4nLCAnLW9tYWUnLCAnPG91dGZpbGUubWFlPic=

>  <r_lp_tautomer_probability>  (70) 
1

>  <r_epik_Ionization_Penalty>  (70) 
1.66926e-07

>  <r_epik_Ionization_Penalty_Charging>  (70) 
8.41294e-08

>  <r_epik_Ionization_Penalty_Neutral>  (70) 
8.27961e-08

>  <r_epik_State_Penalty>  (70) 
-0

>  <r_epik_Charging_Adjusted_Penalty>  (70) 
8.41294e-08

>  <i_epik_Tot_Q>  (70) 
0

>  <i_epik_Tot_abs_Q>  (70) 
0

>  <s_lp_Force_Field>  (70) 
OPLS3e

>  <r_lp_Energy>  (70) 
19.8275

>  <b_lp_Chiralities_Consistent>  (70) 
1

>  <s_lp_Variant>  (70) 
20:0-1

>  <s_i_glide_gridfile>  (70) 
pfpi4k_grid

>  <i_i_glide_lignum>  (70) 
28

>  <i_i_glide_rotatable_bonds>  (70) 
0

>  <r_i_docking_score>  (70) 
-3.50191

>  <r_i_glide_ligand_efficiency>  (70) 
-0.291826

>  <r_i_glide_ligand_efficiency_sa>  (70) 
-0.668115

>  <r_i_glide_ligand_efficiency_ln>  (70) 
-1.00488

>  <r_i_glide_gscore>  (70) 
-3.50191

>  <r_i_glide_lipo>  (70) 
-0.0246898

>  <r_i_glide_hbond>  (70) 
-0.0399816

>  <r_i_glide_metal>  (70) 
-0

>  <r_i_glide_rewards>  (70) 
-2.25427

>  <r_i_glide_evdw>  (70) 
-15.0341

>  <r_i_glide_ecoul>  (70) 
-2.72556

>  <r_i_glide_erotb>  (70) 
0

>  <r_i_glide_esite>  (70) 
-0.022428

>  <r_i_glide_emodel>  (70) 
-21.9544

>  <r_i_glide_energy>  (70) 
-17.7597

>  <r_i_glide_einternal>  (70) 
0

>  <r_i_glide_intrahb_reward>  (70) 
-0

>  <i_i_glide_confnum>  (70) 
1

>  <i_i_glide_posenum>  (70) 
28

>  <r_i_glide_eff_state_penalty>  (70) 
0

>  <ligand_id>  (70) 
20

>  <original_smiles>  (70) 
Cn1c(=O)c2cccnc2n1C

>  <smiles>  (70) 
[H]c1nc2c(c([H])c1[H])c(=O)n(C([H])([H])[H])n2C([H])([H])[H]

$$$$
21:0:0
     RDKit          3D

 13 14  0  0  1  0  0  0  0  0999 V2000
   -8.2819   -5.0437   -6.2922 C   0  0  0  0  0  0  0  0  0  0  0  0
   -7.4983   -4.6247   -5.1990 C   0  0  0  0  0  0  0  0  0  0  0  0
   -6.4256   -5.4188   -4.7557 C   0  0  0  0  0  0  0  0  0  0  0  0
   -6.1585   -6.6309   -5.4156 C   0  0  0  0  0  0  0  0  0  0  0  0
   -4.9420   -7.8520   -5.1596 S   0  0  0  0  0  0  0  0  0  0  0  0
   -5.4732   -8.8190   -6.4301 N   0  0  0  0  0  0  0  0  0  0  0  0
   -6.5043   -8.3094   -7.0499 N   0  0  0  0  0  0  0  0  0  0  0  0
   -6.9295   -7.0829   -6.5201 C   0  0  0  0  0  0  0  0  0  0  0  0
   -7.9983   -6.2597   -6.9478 C   0  0  0  0  0  0  0  0  0  0  0  0
   -9.1045   -4.4302   -6.6262 H   0  0  0  0  0  0  0  0  0  0  0  0
   -7.7180   -3.6920   -4.7031 H   0  0  0  0  0  0  0  0  0  0  0  0
   -5.8139   -5.1030   -3.9235 H   0  0  0  0  0  0  0  0  0  0  0  0
   -8.6096   -6.5697   -7.7817 H   0  0  0  0  0  0  0  0  0  0  0  0
  1  9  2  0
  1  2  1  0
  1 10  1  0
  2  3  2  0
  2 11  1  0
  3  4  1  0
  3 12  1  0
  4  8  2  0
  4  5  1  0
  5  6  1  0
  6  7  2  0
  7  8  1  0
  8  9  1  0
  9 13  1  0
M  END
>  <i_m_ct_stereo_status>  (71) 
1

>  <s_m_source_file>  (71) 
/var/tmp/pbs.5076255.sched01/tmpsofmo5yl/0au1p7r3z.sdf

>  <i_m_source_file_index>  (71) 
29

>  <i_lp_mmshare_version>  (71) 
48012

>  <i_f3d_flags>  (71) 
0

>  <s_epik_input>  (71) 
W2NIXTFbY0hdW2NIXVtjSF1jKGMxMilubnMy

>  <s_epik_cmdline>  (71) 
J2VwaWtfcHl0aG9uJywgJy1waHQnLCAnMi4wJywgJy1waCcsICc3LjAnLCAnLXRuJywgJzgnLCAnLW1hJywgJzIwMCcsICctaW1hZScsICc8aW5maWxlLm1hZT4nLCAnLW9tYWUnLCAnPG91dGZpbGUubWFlPic=

>  <r_lp_tautomer_probability>  (71) 
1

>  <r_epik_Ionization_Penalty>  (71) 
1.18962e-09

>  <r_epik_Ionization_Penalty_Charging>  (71) 
0

>  <r_epik_Ionization_Penalty_Neutral>  (71) 
1.18962e-09

>  <r_epik_State_Penalty>  (71) 
-0

>  <r_epik_Charging_Adjusted_Penalty>  (71) 
0

>  <i_epik_Tot_Q>  (71) 
0

>  <i_epik_Tot_abs_Q>  (71) 
0

>  <s_lp_Force_Field>  (71) 
OPLS3e

>  <r_lp_Energy>  (71) 
9.75904

>  <b_lp_Chiralities_Consistent>  (71) 
1

>  <s_lp_Variant>  (71) 
21:0-1

>  <s_i_glide_gridfile>  (71) 
pfpi4k_grid

>  <i_i_glide_lignum>  (71) 
29

>  <i_i_glide_rotatable_bonds>  (71) 
0

>  <r_i_docking_score>  (71) 
-5.99282

>  <r_i_glide_ligand_efficiency>  (71) 
-0.665868

>  <r_i_glide_ligand_efficiency_sa>  (71) 
-1.38506

>  <r_i_glide_ligand_efficiency_ln>  (71) 
-1.87438

>  <r_i_glide_gscore>  (71) 
-5.99282

>  <r_i_glide_lipo>  (71) 
-2.03094

>  <r_i_glide_hbond>  (71) 
0

>  <r_i_glide_metal>  (71) 
-0

>  <r_i_glide_rewards>  (71) 
-2.95

>  <r_i_glide_evdw>  (71) 
-20.3635

>  <r_i_glide_ecoul>  (71) 
0.0419846

>  <r_i_glide_erotb>  (71) 
0

>  <r_i_glide_esite>  (71) 
0

>  <r_i_glide_emodel>  (71) 
-28.3513

>  <r_i_glide_energy>  (71) 
-20.3215

>  <r_i_glide_einternal>  (71) 
0

>  <r_i_glide_intrahb_reward>  (71) 
-0

>  <i_i_glide_confnum>  (71) 
1

>  <i_i_glide_posenum>  (71) 
23

>  <r_i_glide_eff_state_penalty>  (71) 
0

>  <ligand_id>  (71) 
21

>  <original_smiles>  (71) 
c1ccc2snnc2c1

>  <smiles>  (71) 
[H]c1c([H])c([H])c2snnc2c1[H]

$$$$
21:0:1
     RDKit          3D

 13 14  0  0  1  0  0  0  0  0999 V2000
   -8.3817   -4.2537   -5.5533 C   0  0  0  0  0  0  0  0  0  0  0  0
   -8.8772   -5.0364   -6.6148 C   0  0  0  0  0  0  0  0  0  0  0  0
   -8.1884   -6.2006   -7.0051 C   0  0  0  0  0  0  0  0  0  0  0  0
   -7.0172   -6.5656   -6.3202 C   0  0  0  0  0  0  0  0  0  0  0  0
   -5.9256   -7.9135   -6.5091 S   0  0  0  0  0  0  0  0  0  0  0  0
   -4.9006   -7.4096   -5.2747 N   0  0  0  0  0  0  0  0  0  0  0  0
   -5.3008   -6.2980   -4.7212 N   0  0  0  0  0  0  0  0  0  0  0  0
   -6.4889   -5.7912   -5.2547 C   0  0  0  0  0  0  0  0  0  0  0  0
   -7.1977   -4.6258   -4.8814 C   0  0  0  0  0  0  0  0  0  0  0  0
   -8.9077   -3.3578   -5.2548 H   0  0  0  0  0  0  0  0  0  0  0  0
   -9.7875   -4.7482   -7.1208 H   0  0  0  0  0  0  0  0  0  0  0  0
   -8.5641   -6.8148   -7.8103 H   0  0  0  0  0  0  0  0  0  0  0  0
   -6.8251   -4.0081   -4.0764 H   0  0  0  0  0  0  0  0  0  0  0  0
  1  9  2  0
  1  2  1  0
  1 10  1  0
  2  3  2  0
  2 11  1  0
  3  4  1  0
  3 12  1  0
  4  8  2  0
  4  5  1  0
  5  6  1  0
  6  7  2  0
  7  8  1  0
  8  9  1  0
  9 13  1  0
M  END
>  <i_m_ct_stereo_status>  (72) 
1

>  <s_m_source_file>  (72) 
/var/tmp/pbs.5076255.sched01/tmpsofmo5yl/0au1p7r3z.sdf

>  <i_m_source_file_index>  (72) 
29

>  <i_lp_mmshare_version>  (72) 
48012

>  <i_f3d_flags>  (72) 
0

>  <s_epik_input>  (72) 
W2NIXTFbY0hdW2NIXVtjSF1jKGMxMilubnMy

>  <s_epik_cmdline>  (72) 
J2VwaWtfcHl0aG9uJywgJy1waHQnLCAnMi4wJywgJy1waCcsICc3LjAnLCAnLXRuJywgJzgnLCAnLW1hJywgJzIwMCcsICctaW1hZScsICc8aW5maWxlLm1hZT4nLCAnLW9tYWUnLCAnPG91dGZpbGUubWFlPic=

>  <r_lp_tautomer_probability>  (72) 
1

>  <r_epik_Ionization_Penalty>  (72) 
1.18962e-09

>  <r_epik_Ionization_Penalty_Charging>  (72) 
0

>  <r_epik_Ionization_Penalty_Neutral>  (72) 
1.18962e-09

>  <r_epik_State_Penalty>  (72) 
-0

>  <r_epik_Charging_Adjusted_Penalty>  (72) 
0

>  <i_epik_Tot_Q>  (72) 
0

>  <i_epik_Tot_abs_Q>  (72) 
0

>  <s_lp_Force_Field>  (72) 
OPLS3e

>  <r_lp_Energy>  (72) 
9.75904

>  <b_lp_Chiralities_Consistent>  (72) 
1

>  <s_lp_Variant>  (72) 
21:0-1

>  <s_i_glide_gridfile>  (72) 
pfpi4k_grid

>  <i_i_glide_lignum>  (72) 
29

>  <i_i_glide_rotatable_bonds>  (72) 
0

>  <r_i_docking_score>  (72) 
-5.93808

>  <r_i_glide_ligand_efficiency>  (72) 
-0.659787

>  <r_i_glide_ligand_efficiency_sa>  (72) 
-1.37241

>  <r_i_glide_ligand_efficiency_ln>  (72) 
-1.85726

>  <r_i_glide_gscore>  (72) 
-5.93808

>  <r_i_glide_lipo>  (72) 
-1.90422

>  <r_i_glide_hbond>  (72) 
0

>  <r_i_glide_metal>  (72) 
-0

>  <r_i_glide_rewards>  (72) 
-2.85

>  <r_i_glide_evdw>  (72) 
-20.912

>  <r_i_glide_ecoul>  (72) 
-0.921747

>  <r_i_glide_erotb>  (72) 
0

>  <r_i_glide_esite>  (72) 
0

>  <r_i_glide_emodel>  (72) 
-29.7888

>  <r_i_glide_energy>  (72) 
-21.8338

>  <r_i_glide_einternal>  (72) 
0

>  <r_i_glide_intrahb_reward>  (72) 
-0

>  <i_i_glide_confnum>  (72) 
1

>  <i_i_glide_posenum>  (72) 
1

>  <r_i_glide_eff_state_penalty>  (72) 
0

>  <ligand_id>  (72) 
21

>  <original_smiles>  (72) 
c1ccc2snnc2c1

>  <smiles>  (72) 
[H]c1c([H])c([H])c2snnc2c1[H]

$$$$
21:0:2
     RDKit          3D

 13 14  0  0  1  0  0  0  0  0999 V2000
    2.9241   -9.6605    3.2078 C   0  0  0  0  0  0  0  0  0  0  0  0
    2.0583  -10.7446    3.4513 C   0  0  0  0  0  0  0  0  0  0  0  0
    0.6724  -10.5816    3.2733 C   0  0  0  0  0  0  0  0  0  0  0  0
    0.1749   -9.3377    2.8472 C   0  0  0  0  0  0  0  0  0  0  0  0
   -1.4402   -8.7794    2.5084 S   0  0  0  0  0  0  0  0  0  0  0  0
   -0.9454   -7.2240    2.0990 N   0  0  0  0  0  0  0  0  0  0  0  0
    0.3469   -7.0729    2.1726 N   0  0  0  0  0  0  0  0  0  0  0  0
    1.0231   -8.2280    2.5885 C   0  0  0  0  0  0  0  0  0  0  0  0
    2.4119   -8.4153    2.7819 C   0  0  0  0  0  0  0  0  0  0  0  0
    3.9871   -9.7845    3.3510 H   0  0  0  0  0  0  0  0  0  0  0  0
    2.4519  -11.6989    3.7753 H   0  0  0  0  0  0  0  0  0  0  0  0
    0.0055  -11.4036    3.4642 H   0  0  0  0  0  0  0  0  0  0  0  0
    3.0899   -7.5934    2.6032 H   0  0  0  0  0  0  0  0  0  0  0  0
  1  9  2  0
  1  2  1  0
  1 10  1  0
  2  3  2  0
  2 11  1  0
  3  4  1  0
  3 12  1  0
  4  8  2  0
  4  5  1  0
  5  6  1  0
  6  7  2  0
  7  8  1  0
  8  9  1  0
  9 13  1  0
M  END
>  <i_m_ct_stereo_status>  (73) 
1

>  <s_m_source_file>  (73) 
/var/tmp/pbs.5076255.sched01/tmpsofmo5yl/0au1p7r3z.sdf

>  <i_m_source_file_index>  (73) 
29

>  <i_lp_mmshare_version>  (73) 
48012

>  <i_f3d_flags>  (73) 
0

>  <s_epik_input>  (73) 
W2NIXTFbY0hdW2NIXVtjSF1jKGMxMilubnMy

>  <s_epik_cmdline>  (73) 
J2VwaWtfcHl0aG9uJywgJy1waHQnLCAnMi4wJywgJy1waCcsICc3LjAnLCAnLXRuJywgJzgnLCAnLW1hJywgJzIwMCcsICctaW1hZScsICc8aW5maWxlLm1hZT4nLCAnLW9tYWUnLCAnPG91dGZpbGUubWFlPic=

>  <r_lp_tautomer_probability>  (73) 
1

>  <r_epik_Ionization_Penalty>  (73) 
1.18962e-09

>  <r_epik_Ionization_Penalty_Charging>  (73) 
0

>  <r_epik_Ionization_Penalty_Neutral>  (73) 
1.18962e-09

>  <r_epik_State_Penalty>  (73) 
-0

>  <r_epik_Charging_Adjusted_Penalty>  (73) 
0

>  <i_epik_Tot_Q>  (73) 
0

>  <i_epik_Tot_abs_Q>  (73) 
0

>  <s_lp_Force_Field>  (73) 
OPLS3e

>  <r_lp_Energy>  (73) 
9.75904

>  <b_lp_Chiralities_Consistent>  (73) 
1

>  <s_lp_Variant>  (73) 
21:0-1

>  <s_i_glide_gridfile>  (73) 
pfpi4k_grid

>  <i_i_glide_lignum>  (73) 
29

>  <i_i_glide_rotatable_bonds>  (73) 
0

>  <r_i_docking_score>  (73) 
-3.71602

>  <r_i_glide_ligand_efficiency>  (73) 
-0.412891

>  <r_i_glide_ligand_efficiency_sa>  (73) 
-0.858847

>  <r_i_glide_ligand_efficiency_ln>  (73) 
-1.16226

>  <r_i_glide_gscore>  (73) 
-3.71602

>  <r_i_glide_lipo>  (73) 
-0.237328

>  <r_i_glide_hbond>  (73) 
0

>  <r_i_glide_metal>  (73) 
-0

>  <r_i_glide_rewards>  (73) 
-2.25

>  <r_i_glide_evdw>  (73) 
-15.6462

>  <r_i_glide_ecoul>  (73) 
-1.81646

>  <r_i_glide_erotb>  (73) 
0

>  <r_i_glide_esite>  (73) 
-0.17391

>  <r_i_glide_emodel>  (73) 
-22.4411

>  <r_i_glide_energy>  (73) 
-17.4626

>  <r_i_glide_einternal>  (73) 
0

>  <r_i_glide_intrahb_reward>  (73) 
-0

>  <i_i_glide_confnum>  (73) 
1

>  <i_i_glide_posenum>  (73) 
2

>  <r_i_glide_eff_state_penalty>  (73) 
0

>  <ligand_id>  (73) 
21

>  <original_smiles>  (73) 
c1ccc2snnc2c1

>  <smiles>  (73) 
[H]c1c([H])c([H])c2snnc2c1[H]

$$$$
24:0:0
     RDKit          3D

 14 15  0  0  1  0  0  0  0  0999 V2000
    3.0371   -4.2970    2.9778 N   0  0  0  0  0  0  0  0  0  0  0  0
    3.2181   -3.6931    2.0054 C   0  0  0  0  0  0  0  0  0  0  0  0
    3.4275   -2.9574    0.7876 C   0  0  0  0  0  0  0  0  0  0  0  0
    4.2068   -1.8804    0.8833 N   0  0  0  0  0  0  0  0  0  0  0  0
    4.4101   -1.1708   -0.2386 C   0  0  0  0  0  0  0  0  0  0  0  0
    3.8313   -1.5958   -1.4427 C   0  0  0  0  0  0  0  0  0  0  0  0
    3.9137   -0.8881   -3.0451 S   0  0  0  0  0  0  0  0  0  0  0  0
    2.8967   -2.1426   -3.6711 C   0  0  0  0  0  0  0  0  0  0  0  0
    2.4851   -3.0577   -2.7383 C   0  0  0  0  0  0  0  0  0  0  0  0
    3.0153   -2.7679   -1.4241 C   0  0  0  0  0  0  0  0  0  0  0  0
    2.8139   -3.4563   -0.2918 N   0  0  0  0  0  0  0  0  0  0  0  0
    5.0270   -0.2872   -0.1761 H   0  0  0  0  0  0  0  0  0  0  0  0
    2.6166   -2.1208   -4.7108 H   0  0  0  0  0  0  0  0  0  0  0  0
    1.8418   -3.9014   -2.9343 H   0  0  0  0  0  0  0  0  0  0  0  0
  1  2  3  0
  2  3  1  0
  3 11  2  0
  3  4  1  0
  4  5  2  0
  5  6  1  0
  5 12  1  0
  6 10  2  0
  6  7  1  0
  7  8  1  0
  8  9  2  0
  8 13  1  0
  9 10  1  0
  9 14  1  0
 10 11  1  0
M  END
>  <i_m_ct_stereo_status>  (74) 
1

>  <s_m_source_file>  (74) 
/var/tmp/pbs.5076255.sched01/tmpsofmo5yl/0au1p7r3z.sdf

>  <i_m_source_file_index>  (74) 
32

>  <i_lp_mmshare_version>  (74) 
48012

>  <i_f3d_flags>  (74) 
0

>  <s_epik_input>  (74) 
TiNDYyhuW2NIXTEpbmMoYzEyKVtjSF1bY0hdczI=

>  <s_epik_cmdline>  (74) 
J2VwaWtfcHl0aG9uJywgJy1waHQnLCAnMi4wJywgJy1waCcsICc3LjAnLCAnLXRuJywgJzgnLCAnLW1hJywgJzIwMCcsICctaW1hZScsICc8aW5maWxlLm1hZT4nLCAnLW9tYWUnLCAnPG91dGZpbGUubWFlPic=

>  <r_lp_tautomer_probability>  (74) 
1

>  <r_epik_Ionization_Penalty>  (74) 
7.97638e-13

>  <r_epik_Ionization_Penalty_Charging>  (74) 
0

>  <r_epik_Ionization_Penalty_Neutral>  (74) 
7.97638e-13

>  <r_epik_State_Penalty>  (74) 
-0

>  <r_epik_Charging_Adjusted_Penalty>  (74) 
0

>  <i_epik_Tot_Q>  (74) 
0

>  <i_epik_Tot_abs_Q>  (74) 
0

>  <s_lp_Force_Field>  (74) 
OPLS3e

>  <r_lp_Energy>  (74) 
10.0747

>  <b_lp_Chiralities_Consistent>  (74) 
1

>  <s_lp_Variant>  (74) 
24:0-1

>  <s_i_glide_gridfile>  (74) 
pfpi4k_grid

>  <i_i_glide_lignum>  (74) 
32

>  <i_i_glide_rotatable_bonds>  (74) 
1

>  <r_i_docking_score>  (74) 
-3.96743

>  <r_i_glide_ligand_efficiency>  (74) 
-0.360676

>  <r_i_glide_ligand_efficiency_sa>  (74) 
-0.802136

>  <r_i_glide_ligand_efficiency_ln>  (74) 
-1.16762

>  <r_i_glide_gscore>  (74) 
-3.96743

>  <r_i_glide_lipo>  (74) 
-0.390103

>  <r_i_glide_hbond>  (74) 
0

>  <r_i_glide_metal>  (74) 
-0

>  <r_i_glide_rewards>  (74) 
-2.25131

>  <r_i_glide_evdw>  (74) 
-17.8321

>  <r_i_glide_ecoul>  (74) 
-2.81502

>  <r_i_glide_erotb>  (74) 
0

>  <r_i_glide_esite>  (74) 
-0.0121618

>  <r_i_glide_emodel>  (74) 
-26.1859

>  <r_i_glide_energy>  (74) 
-20.6471

>  <r_i_glide_einternal>  (74) 
-0.340352

>  <r_i_glide_intrahb_reward>  (74) 
-0

>  <i_i_glide_confnum>  (74) 
1

>  <i_i_glide_posenum>  (74) 
1

>  <r_i_glide_eff_state_penalty>  (74) 
0

>  <ligand_id>  (74) 
24

>  <original_smiles>  (74) 
N#Cc1ncc2sccc2n1

>  <smiles>  (74) 
[H]c1sc2c([H])nc(C#N)nc2c1[H]

$$$$
24:0:1
     RDKit          3D

 14 15  0  0  1  0  0  0  0  0999 V2000
    1.0761   -6.4450    1.4991 N   0  0  0  0  0  0  0  0  0  0  0  0
    1.9667   -5.8756    1.0264 C   0  0  0  0  0  0  0  0  0  0  0  0
    3.0314   -5.1202    0.4181 C   0  0  0  0  0  0  0  0  0  0  0  0
    4.2545   -5.6349    0.5415 N   0  0  0  0  0  0  0  0  0  0  0  0
    5.2659   -4.9528   -0.0185 C   0  0  0  0  0  0  0  0  0  0  0  0
    5.0045   -3.7543   -0.6977 C   0  0  0  0  0  0  0  0  0  0  0  0
    6.1085   -2.6592   -1.5204 S   0  0  0  0  0  0  0  0  0  0  0  0
    4.7818   -1.6147   -1.9408 C   0  0  0  0  0  0  0  0  0  0  0  0
    3.5584   -2.0551   -1.4975 C   0  0  0  0  0  0  0  0  0  0  0  0
    3.6518   -3.2986   -0.7680 C   0  0  0  0  0  0  0  0  0  0  0  0
    2.6567   -3.9889   -0.1928 N   0  0  0  0  0  0  0  0  0  0  0  0
    6.2620   -5.3581    0.0721 H   0  0  0  0  0  0  0  0  0  0  0  0
    4.9715   -0.7119   -2.5048 H   0  0  0  0  0  0  0  0  0  0  0  0
    2.6183   -1.5439   -1.6516 H   0  0  0  0  0  0  0  0  0  0  0  0
  1  2  3  0
  2  3  1  0
  3 11  2  0
  3  4  1  0
  4  5  2  0
  5  6  1  0
  5 12  1  0
  6 10  2  0
  6  7  1  0
  7  8  1  0
  8  9  2  0
  8 13  1  0
  9 10  1  0
  9 14  1  0
 10 11  1  0
M  END
>  <i_m_ct_stereo_status>  (75) 
1

>  <s_m_source_file>  (75) 
/var/tmp/pbs.5076255.sched01/tmpsofmo5yl/0au1p7r3z.sdf

>  <i_m_source_file_index>  (75) 
32

>  <i_lp_mmshare_version>  (75) 
48012

>  <i_f3d_flags>  (75) 
0

>  <s_epik_input>  (75) 
TiNDYyhuW2NIXTEpbmMoYzEyKVtjSF1bY0hdczI=

>  <s_epik_cmdline>  (75) 
J2VwaWtfcHl0aG9uJywgJy1waHQnLCAnMi4wJywgJy1waCcsICc3LjAnLCAnLXRuJywgJzgnLCAnLW1hJywgJzIwMCcsICctaW1hZScsICc8aW5maWxlLm1hZT4nLCAnLW9tYWUnLCAnPG91dGZpbGUubWFlPic=

>  <r_lp_tautomer_probability>  (75) 
1

>  <r_epik_Ionization_Penalty>  (75) 
7.97638e-13

>  <r_epik_Ionization_Penalty_Charging>  (75) 
0

>  <r_epik_Ionization_Penalty_Neutral>  (75) 
7.97638e-13

>  <r_epik_State_Penalty>  (75) 
-0

>  <r_epik_Charging_Adjusted_Penalty>  (75) 
0

>  <i_epik_Tot_Q>  (75) 
0

>  <i_epik_Tot_abs_Q>  (75) 
0

>  <s_lp_Force_Field>  (75) 
OPLS3e

>  <r_lp_Energy>  (75) 
10.0747

>  <b_lp_Chiralities_Consistent>  (75) 
1

>  <s_lp_Variant>  (75) 
24:0-1

>  <s_i_glide_gridfile>  (75) 
pfpi4k_grid

>  <i_i_glide_lignum>  (75) 
32

>  <i_i_glide_rotatable_bonds>  (75) 
1

>  <r_i_docking_score>  (75) 
-3.61075

>  <r_i_glide_ligand_efficiency>  (75) 
-0.32825

>  <r_i_glide_ligand_efficiency_sa>  (75) 
-0.730022

>  <r_i_glide_ligand_efficiency_ln>  (75) 
-1.06264

>  <r_i_glide_gscore>  (75) 
-3.61075

>  <r_i_glide_lipo>  (75) 
-0.136429

>  <r_i_glide_hbond>  (75) 
-0.0655579

>  <r_i_glide_metal>  (75) 
-0

>  <r_i_glide_rewards>  (75) 
-2.25

>  <r_i_glide_evdw>  (75) 
-17.6948

>  <r_i_glide_ecoul>  (75) 
-1.30836

>  <r_i_glide_erotb>  (75) 
0

>  <r_i_glide_esite>  (75) 
-0.0777724

>  <r_i_glide_emodel>  (75) 
-24.0561

>  <r_i_glide_energy>  (75) 
-19.0032

>  <r_i_glide_einternal>  (75) 
-0.340326

>  <r_i_glide_intrahb_reward>  (75) 
-0

>  <i_i_glide_confnum>  (75) 
1

>  <i_i_glide_posenum>  (75) 
29

>  <r_i_glide_eff_state_penalty>  (75) 
0

>  <ligand_id>  (75) 
24

>  <original_smiles>  (75) 
N#Cc1ncc2sccc2n1

>  <smiles>  (75) 
[H]c1sc2c([H])nc(C#N)nc2c1[H]

$$$$
24:0:2
     RDKit          3D

 14 15  0  0  1  0  0  0  0  0999 V2000
    2.9952   -4.1642    0.2766 N   0  0  0  0  0  0  0  0  0  0  0  0
    2.6576   -5.1783    0.7201 C   0  0  0  0  0  0  0  0  0  0  0  0
    2.2081   -6.4240    1.2809 C   0  0  0  0  0  0  0  0  0  0  0  0
    3.1566   -7.3289    1.5261 N   0  0  0  0  0  0  0  0  0  0  0  0
    2.7711   -8.5069    2.0446 C   0  0  0  0  0  0  0  0  0  0  0  0
    1.4144   -8.7229    2.3195 C   0  0  0  0  0  0  0  0  0  0  0  0
    0.6188  -10.1349    2.9863 S   0  0  0  0  0  0  0  0  0  0  0  0
   -0.9187   -9.3332    2.8842 C   0  0  0  0  0  0  0  0  0  0  0  0
   -0.8693   -8.0642    2.3682 C   0  0  0  0  0  0  0  0  0  0  0  0
    0.4820   -7.6846    2.0195 C   0  0  0  0  0  0  0  0  0  0  0  0
    0.8842   -6.5192    1.4878 N   0  0  0  0  0  0  0  0  0  0  0  0
    3.5282   -9.2547    2.2337 H   0  0  0  0  0  0  0  0  0  0  0  0
   -1.7957   -9.8566    3.2360 H   0  0  0  0  0  0  0  0  0  0  0  0
   -1.7332   -7.4358    2.2260 H   0  0  0  0  0  0  0  0  0  0  0  0
  1  2  3  0
  2  3  1  0
  3 11  2  0
  3  4  1  0
  4  5  2  0
  5  6  1  0
  5 12  1  0
  6 10  2  0
  6  7  1  0
  7  8  1  0
  8  9  2  0
  8 13  1  0
  9 10  1  0
  9 14  1  0
 10 11  1  0
M  END
>  <i_m_ct_stereo_status>  (76) 
1

>  <s_m_source_file>  (76) 
/var/tmp/pbs.5076255.sched01/tmpsofmo5yl/0au1p7r3z.sdf

>  <i_m_source_file_index>  (76) 
32

>  <i_lp_mmshare_version>  (76) 
48012

>  <i_f3d_flags>  (76) 
0

>  <s_epik_input>  (76) 
TiNDYyhuW2NIXTEpbmMoYzEyKVtjSF1bY0hdczI=

>  <s_epik_cmdline>  (76) 
J2VwaWtfcHl0aG9uJywgJy1waHQnLCAnMi4wJywgJy1waCcsICc3LjAnLCAnLXRuJywgJzgnLCAnLW1hJywgJzIwMCcsICctaW1hZScsICc8aW5maWxlLm1hZT4nLCAnLW9tYWUnLCAnPG91dGZpbGUubWFlPic=

>  <r_lp_tautomer_probability>  (76) 
1

>  <r_epik_Ionization_Penalty>  (76) 
7.97638e-13

>  <r_epik_Ionization_Penalty_Charging>  (76) 
0

>  <r_epik_Ionization_Penalty_Neutral>  (76) 
7.97638e-13

>  <r_epik_State_Penalty>  (76) 
-0

>  <r_epik_Charging_Adjusted_Penalty>  (76) 
0

>  <i_epik_Tot_Q>  (76) 
0

>  <i_epik_Tot_abs_Q>  (76) 
0

>  <s_lp_Force_Field>  (76) 
OPLS3e

>  <r_lp_Energy>  (76) 
10.0747

>  <b_lp_Chiralities_Consistent>  (76) 
1

>  <s_lp_Variant>  (76) 
24:0-1

>  <s_i_glide_gridfile>  (76) 
pfpi4k_grid

>  <i_i_glide_lignum>  (76) 
32

>  <i_i_glide_rotatable_bonds>  (76) 
1

>  <r_i_docking_score>  (76) 
-3.58322

>  <r_i_glide_ligand_efficiency>  (76) 
-0.325747

>  <r_i_glide_ligand_efficiency_sa>  (76) 
-0.724455

>  <r_i_glide_ligand_efficiency_ln>  (76) 
-1.05454

>  <r_i_glide_gscore>  (76) 
-3.58322

>  <r_i_glide_lipo>  (76) 
-0.0638155

>  <r_i_glide_hbond>  (76) 
-0.0790985

>  <r_i_glide_metal>  (76) 
-0

>  <r_i_glide_rewards>  (76) 
-2.25

>  <r_i_glide_evdw>  (76) 
-18.3779

>  <r_i_glide_ecoul>  (76) 
-1.43459

>  <r_i_glide_erotb>  (76) 
0

>  <r_i_glide_esite>  (76) 
-0.0562198

>  <r_i_glide_emodel>  (76) 
-24.8339

>  <r_i_glide_energy>  (76) 
-19.8125

>  <r_i_glide_einternal>  (76) 
-0.341566

>  <r_i_glide_intrahb_reward>  (76) 
-0

>  <i_i_glide_confnum>  (76) 
2

>  <i_i_glide_posenum>  (76) 
3

>  <r_i_glide_eff_state_penalty>  (76) 
0

>  <ligand_id>  (76) 
24

>  <original_smiles>  (76) 
N#Cc1ncc2sccc2n1

>  <smiles>  (76) 
[H]c1sc2c([H])nc(C#N)nc2c1[H]

$$$$
25:0:0
     RDKit          3D

 34 38  0  0  1  0  0  0  0  0999 V2000
    3.8069    0.2570   -3.7284 C   0  0  0  0  0  0  0  0  0  0  0  0
    3.8240   -1.1915   -3.4129 C   0  0  0  0  0  0  0  0  0  0  0  0
    3.3479   -2.1409   -4.3090 N   0  0  0  0  0  0  0  0  0  0  0  0
    3.5031   -3.4263   -3.9032 N   0  0  0  0  0  0  0  0  0  0  0  0
    3.9956   -3.2570   -2.6896 C   0  0  0  0  0  0  0  0  0  0  0  0
    4.2140   -1.9194   -2.3322 C   0  0  0  0  0  0  0  0  0  0  0  0
    4.7616   -1.8937   -0.9436 C   0  0  2  0  0  0  0  0  0  0  0  0
    3.6259   -1.9028    0.0981 C   0  0  0  0  0  0  0  0  0  0  0  0
    4.4167   -1.7512    1.3836 C   0  0  1  0  0  0  0  0  0  0  0  0
    5.2958   -3.0304    1.5806 C   0  0  0  0  0  0  0  0  0  0  0  0
    6.2245   -3.2608    0.3489 C   0  0  2  0  0  0  0  0  0  0  0  0
    7.0051   -1.9466    0.0865 C   0  0  0  0  0  0  0  0  0  0  0  0
    5.8655   -0.9801   -0.3407 C   0  0  2  0  0  0  0  0  0  0  0  0
    5.2566   -0.5206    0.9961 C   0  0  0  0  0  0  0  0  0  0  0  0
    5.4719   -3.2475   -0.9804 C   0  0  1  0  0  0  0  0  0  0  0  0
    4.5123   -4.2430   -1.6699 C   0  0  0  0  0  0  0  0  0  0  0  0
    2.8585   -1.9257   -5.1722 H   0  0  0  0  0  0  0  0  0  0  0  0
    4.2131    0.8415   -2.9022 H   0  0  0  0  0  0  0  0  0  0  0  0
    2.7809    0.5667   -3.9185 H   0  0  0  0  0  0  0  0  0  0  0  0
    4.3933    0.4629   -4.6236 H   0  0  0  0  0  0  0  0  0  0  0  0
    2.9735   -1.0397   -0.0533 H   0  0  0  0  0  0  0  0  0  0  0  0
    3.0003   -2.7929    0.0851 H   0  0  0  0  0  0  0  0  0  0  0  0
    3.7708   -1.5612    2.2421 H   0  0  0  0  0  0  0  0  0  0  0  0
    5.9019   -2.9220    2.4819 H   0  0  0  0  0  0  0  0  0  0  0  0
    4.6554   -3.9019    1.7244 H   0  0  0  0  0  0  0  0  0  0  0  0
    6.8805   -4.1261    0.4644 H   0  0  0  0  0  0  0  0  0  0  0  0
    7.5647   -1.6033    0.9557 H   0  0  0  0  0  0  0  0  0  0  0  0
    7.7395   -2.0726   -0.7111 H   0  0  0  0  0  0  0  0  0  0  0  0
    6.1747   -0.1645   -0.9745 H   0  0  0  0  0  0  0  0  0  0  0  0
    4.6173    0.3529    0.8498 H   0  0  0  0  0  0  0  0  0  0  0  0
    5.9945   -0.2616    1.7571 H   0  0  0  0  0  0  0  0  0  0  0  0
    6.2610   -3.2081   -1.7414 H   0  0  0  0  0  0  0  0  0  0  0  0
    5.0209   -5.0907   -2.1217 H   0  0  0  0  0  0  0  0  0  0  0  0
    3.7306   -4.5988   -0.9924 H   0  0  0  0  0  0  0  0  0  0  0  0
  1 18  1  0
  1 19  1  0
  1 20  1  0
  1  2  1  0
  2  3  1  0
  2  6  2  0
  3  4  1  0
  3 17  1  0
  4  5  2  0
  5 16  1  0
  5  6  1  0
  7  6  1  6
  7 13  1  0
  7 15  1  0
  7  8  1  0
  8  9  1  0
  8 21  1  0
  8 22  1  0
  9 14  1  0
  9 10  1  0
  9 23  1  1
 10 11  1  0
 10 24  1  0
 10 25  1  0
 11 12  1  0
 11 15  1  0
 11 26  1  1
 12 13  1  0
 12 27  1  0
 12 28  1  0
 13 14  1  0
 13 29  1  6
 14 30  1  0
 14 31  1  0
 15 16  1  0
 15 32  1  6
 16 33  1  0
 16 34  1  0
M  END
>  <i_m_ct_stereo_status>  (77) 
1

>  <s_m_source_file>  (77) 
/var/tmp/pbs.5076255.sched01/tmpsofmo5yl/0au1p7r3z.sdf

>  <i_m_source_file_index>  (77) 
33

>  <i_lp_mmshare_version>  (77) 
48012

>  <i_f3d_flags>  (77) 
0

>  <s_epik_input>  (77) 
W0NIM11jMW5bbkhdYyhjMVtDQF0yMzQpW0NIMl1bQ0BASF00W0NAQEhdNVtDSDJdW0NASF0oW0NIMl0yKVtDSDJdW0NASF0zW0NIMl01

>  <s_epik_cmdline>  (77) 
J2VwaWtfcHl0aG9uJywgJy1waHQnLCAnMi4wJywgJy1waCcsICc3LjAnLCAnLXRuJywgJzgnLCAnLW1hJywgJzIwMCcsICctaW1hZScsICc8aW5maWxlLm1hZT4nLCAnLW9tYWUnLCAnPG91dGZpbGUubWFlPic=

>  <r_lp_tautomer_probability>  (77) 
0.5

>  <r_epik_Ionization_Penalty>  (77) 
0.0543121

>  <r_epik_Ionization_Penalty_Charging>  (77) 
0

>  <r_epik_Ionization_Penalty_Neutral>  (77) 
0.0543121

>  <r_epik_State_Penalty>  (77) 
0.421367

>  <r_epik_Charging_Adjusted_Penalty>  (77) 
0.421367

>  <i_epik_Tot_Q>  (77) 
0

>  <i_epik_Tot_abs_Q>  (77) 
0

>  <s_lp_Force_Field>  (77) 
OPLS3e

>  <r_lp_Energy>  (77) 
60.2914

>  <b_lp_Chiralities_Consistent>  (77) 
1

>  <s_lp_Variant>  (77) 
25:0-1

>  <s_i_glide_gridfile>  (77) 
pfpi4k_grid

>  <i_i_glide_lignum>  (77) 
33

>  <i_i_glide_rotatable_bonds>  (77) 
0

>  <r_i_docking_score>  (77) 
-4.07287

>  <r_i_glide_ligand_efficiency>  (77) 
-0.254554

>  <r_i_glide_ligand_efficiency_sa>  (77) 
-0.641436

>  <r_i_glide_ligand_efficiency_ln>  (77) 
-1.07959

>  <r_i_glide_gscore>  (77) 
-4.07287

>  <r_i_glide_lipo>  (77) 
-0.524069

>  <r_i_glide_hbond>  (77) 
-0.32

>  <r_i_glide_metal>  (77) 
-0

>  <r_i_glide_rewards>  (77) 
-1.94791

>  <r_i_glide_evdw>  (77) 
-19.2476

>  <r_i_glide_ecoul>  (77) 
-1.89983

>  <r_i_glide_erotb>  (77) 
0

>  <r_i_glide_esite>  (77) 
-0.0335326

>  <r_i_glide_emodel>  (77) 
-25.7258

>  <r_i_glide_energy>  (77) 
-21.1474

>  <r_i_glide_einternal>  (77) 
0

>  <r_i_glide_intrahb_reward>  (77) 
-0

>  <i_i_glide_confnum>  (77) 
1

>  <i_i_glide_posenum>  (77) 
5

>  <r_i_glide_eff_state_penalty>  (77) 
0

>  <ligand_id>  (77) 
25

>  <original_smiles>  (77) 
Cc1n[nH]c2c1C13CC4CC(CC1C4)C3C2

>  <smiles>  (77) 
[H]n1nc2c(c1C([H])([H])[H])C13C([H])([H])C4([H])C([H])([H])C([H])(C([H])([H])C1([H])C4([H])[H])C3([H])C2([H])[H]

$$$$
25:2:0
     RDKit          3D

 35 39  0  0  1  0  0  0  0  0999 V2000
    3.6243   -0.0799   -3.6214 C   0  0  0  0  0  0  0  0  0  0  0  0
    3.2263   -1.3995   -3.0503 C   0  0  0  0  0  0  0  0  0  0  0  0
    2.4778   -2.3306   -3.7281 N   0  0  0  0  0  0  0  0  0  0  0  0
    2.2467   -3.4334   -2.9562 N   0  0  0  0  0  0  0  0  0  0  0  0
    2.8794   -3.2534   -1.7666 C   0  0  0  0  0  0  0  0  0  0  0  0
    3.4500   -1.9996   -1.8060 C   0  0  0  0  0  0  0  0  0  0  0  0
    4.0719   -1.7579   -0.4665 C   0  0  2  0  0  0  0  0  0  0  0  0
    3.0409   -1.2148    0.5521 C   0  0  0  0  0  0  0  0  0  0  0  0
    3.9137   -0.9813    1.7700 C   0  0  1  0  0  0  0  0  0  0  0  0
    4.4246   -2.3594    2.2913 C   0  0  0  0  0  0  0  0  0  0  0  0
    5.1886   -3.1138    1.1657 C   0  0  2  0  0  0  0  0  0  0  0  0
    6.2754   -2.1659    0.5964 C   0  0  0  0  0  0  0  0  0  0  0  0
    5.4201   -1.0572   -0.0868 C   0  0  2  0  0  0  0  0  0  0  0  0
    5.0187   -0.1558    1.1002 C   0  0  0  0  0  0  0  0  0  0  0  0
    4.3870   -3.2199   -0.1273 C   0  0  1  0  0  0  0  0  0  0  0  0
    3.1574   -4.0620   -0.5329 C   0  0  0  0  0  0  0  0  0  0  0  0
    1.6925   -4.2271   -3.2715 H   0  0  0  0  0  0  0  0  0  0  0  0
    4.2182    0.4872   -2.9102 H   0  0  0  0  0  0  0  0  0  0  0  0
    2.7399    0.4975   -3.8844 H   0  0  0  0  0  0  0  0  0  0  0  0
    4.2030   -0.2297   -4.5297 H   0  0  0  0  0  0  0  0  0  0  0  0
    2.6114   -0.2697    0.2069 H   0  0  0  0  0  0  0  0  0  0  0  0
    2.2140   -1.8835    0.7713 H   0  0  0  0  0  0  0  0  0  0  0  0
    3.3916   -0.4244    2.5465 H   0  0  0  0  0  0  0  0  0  0  0  0
    5.0824   -2.2124    3.1469 H   0  0  0  0  0  0  0  0  0  0  0  0
    3.5859   -2.9629    2.6389 H   0  0  0  0  0  0  0  0  0  0  0  0
    5.5960   -4.0697    1.5007 H   0  0  0  0  0  0  0  0  0  0  0  0
    6.9418   -1.7901    1.3708 H   0  0  0  0  0  0  0  0  0  0  0  0
    6.9144   -2.6711   -0.1296 H   0  0  0  0  0  0  0  0  0  0  0  0
    5.9124   -0.5167   -0.8945 H   0  0  0  0  0  0  0  0  0  0  0  0
    4.6122    0.7942    0.7550 H   0  0  0  0  0  0  0  0  0  0  0  0
    5.8297    0.0697    1.7890 H   0  0  0  0  0  0  0  0  0  0  0  0
    5.1158   -3.5919   -0.8569 H   0  0  0  0  0  0  0  0  0  0  0  0
    2.3345   -4.0006    0.1760 H   0  0  0  0  0  0  0  0  0  0  0  0
    3.4097   -5.1017   -0.7213 H   0  0  0  0  0  0  0  0  0  0  0  0
    2.0925   -2.2536   -4.6644 H   0  0  0  0  0  0  0  0  0  0  0  0
  1  2  1  0
  1 18  1  0
  1 19  1  0
  1 20  1  0
  2  6  1  0
  2  3  2  0
  3  4  1  0
  3 35  1  0
  4 17  1  0
  4  5  1  0
  5 16  1  0
  5  6  2  0
  7  6  1  6
  7 13  1  0
  7 15  1  0
  7  8  1  0
  8  9  1  0
  8 21  1  0
  8 22  1  0
  9 14  1  0
  9 10  1  0
  9 23  1  1
 10 11  1  0
 10 24  1  0
 10 25  1  0
 11 12  1  0
 11 15  1  0
 11 26  1  1
 12 13  1  0
 12 27  1  0
 12 28  1  0
 13 14  1  0
 13 29  1  6
 14 30  1  0
 14 31  1  0
 15 16  1  0
 15 32  1  6
 16 33  1  0
 16 34  1  0
M  CHG  1   3   1
M  END
>  <i_m_ct_stereo_status>  (78) 
1

>  <s_m_source_file>  (78) 
/var/tmp/pbs.5076255.sched01/tmpsofmo5yl/0au1p7r3z.sdf

>  <i_m_source_file_index>  (78) 
35

>  <i_lp_mmshare_version>  (78) 
48012

>  <i_f3d_flags>  (78) 
0

>  <s_epik_input>  (78) 
W0NIM11jMW5bbkhdYyhjMVtDQF0yMzQpW0NIMl1bQ0BASF00W0NAQEhdNVtDSDJdW0NASF0oW0NIMl0yKVtDSDJdW0NASF0zW0NIMl01

>  <s_epik_cmdline>  (78) 
J2VwaWtfcHl0aG9uJywgJy1waHQnLCAnMi4wJywgJy1waCcsICc3LjAnLCAnLXRuJywgJzgnLCAnLW1hJywgJzIwMCcsICctaW1hZScsICc8aW5maWxlLm1hZT4nLCAnLW9tYWUnLCAnPG91dGZpbGUubWFlPic=

>  <r_lp_tautomer_probability>  (78) 
1

>  <r_epik_Ionization_Penalty>  (78) 
2.80812

>  <r_epik_Ionization_Penalty_Charging>  (78) 
2.80812

>  <r_epik_Ionization_Penalty_Neutral>  (78) 
2.10923e-07

>  <r_epik_State_Penalty>  (78) 
1.87257

>  <r_epik_Charging_Adjusted_Penalty>  (78) 
4.6807

>  <i_epik_Tot_Q>  (78) 
1

>  <i_epik_Tot_abs_Q>  (78) 
1

>  <s_lp_Force_Field>  (78) 
OPLS3e

>  <r_lp_Energy>  (78) 
70.7013

>  <b_lp_Chiralities_Consistent>  (78) 
1

>  <s_lp_Variant>  (78) 
25:0-3

>  <s_i_glide_gridfile>  (78) 
pfpi4k_grid

>  <i_i_glide_lignum>  (78) 
35

>  <i_i_glide_rotatable_bonds>  (78) 
0

>  <r_i_docking_score>  (78) 
-5.47952

>  <r_i_glide_ligand_efficiency>  (78) 
-0.34247

>  <r_i_glide_ligand_efficiency_sa>  (78) 
-0.86297

>  <r_i_glide_ligand_efficiency_ln>  (78) 
-1.45246

>  <r_i_glide_gscore>  (78) 
-5.47952

>  <r_i_glide_lipo>  (78) 
-0.507181

>  <r_i_glide_hbond>  (78) 
-0.298552

>  <r_i_glide_metal>  (78) 
-0

>  <r_i_glide_rewards>  (78) 
-2.47104

>  <r_i_glide_evdw>  (78) 
-15.9645

>  <r_i_glide_ecoul>  (78) 
-9.36346

>  <r_i_glide_erotb>  (78) 
0

>  <r_i_glide_esite>  (78) 
0

>  <r_i_glide_emodel>  (78) 
-34.2387

>  <r_i_glide_energy>  (78) 
-25.328

>  <r_i_glide_einternal>  (78) 
0

>  <r_i_glide_intrahb_reward>  (78) 
-0

>  <i_i_glide_confnum>  (78) 
1

>  <i_i_glide_posenum>  (78) 
1

>  <r_i_glide_eff_state_penalty>  (78) 
0

>  <ligand_id>  (78) 
25

>  <original_smiles>  (78) 
Cc1n[nH]c2c1C13CC4CC(CC1C4)C3C2

>  <smiles>  (78) 
[H]n1c2c(c(C([H])([H])[H])[n+]1[H])C13C([H])([H])C4([H])C([H])([H])C([H])(C([H])([H])C1([H])C4([H])[H])C3([H])C2([H])[H]

$$$$
25:2:1
     RDKit          3D

 35 39  0  0  1  0  0  0  0  0999 V2000
    4.3056    1.2791   -3.9009 C   0  0  0  0  0  0  0  0  0  0  0  0
    3.6899   -0.0172   -3.6946 C   0  0  0  0  0  0  0  0  0  0  0  0
    2.8028   -0.4407   -4.6134 N   0  0  0  0  0  0  0  0  0  0  0  0
    2.3947   -1.6745   -4.3172 N   0  0  0  0  0  0  0  0  0  0  0  0
    2.9656   -2.0881   -3.1961 C   0  0  0  0  0  0  0  0  0  0  0  0
    3.8135   -1.0930   -2.7939 C   0  0  0  0  0  0  0  0  0  0  0  0
    4.4615   -1.6139   -1.5384 C   0  0  2  0  0  0  0  0  0  0  0  0
    3.6659   -1.2660   -0.2768 C   0  0  0  0  0  0  0  0  0  0  0  0
    4.5956   -1.7240    0.8027 C   0  0  1  0  0  0  0  0  0  0  0  0
    4.6870   -3.2685    0.7127 C   0  0  0  0  0  0  0  0  0  0  0  0
    5.1592   -3.7251   -0.6897 C   0  0  2  0  0  0  0  0  0  0  0  0
    6.4699   -2.9728   -0.9854 C   0  0  0  0  0  0  0  0  0  0  0  0
    5.9376   -1.5323   -1.1054 C   0  0  2  0  0  0  0  0  0  0  0  0
    5.8819   -1.0183    0.3523 C   0  0  0  0  0  0  0  0  0  0  0  0
    4.3544   -3.1102   -1.8241 C   0  0  1  0  0  0  0  0  0  0  0  0
    2.9547   -3.3390   -2.4131 C   0  0  0  0  0  0  0  0  0  0  0  0
    1.6679   -2.1155   -4.8834 H   0  0  0  0  0  0  0  0  0  0  0  0
    5.0059    1.3392   -3.1041 H   0  0  0  0  0  0  0  0  0  0  0  0
    3.8111    2.2298   -3.9154 H   0  0  0  0  0  0  0  0  0  0  0  0
    4.7537    1.2940   -4.8911 H   0  0  0  0  0  0  0  0  0  0  0  0
    3.5985   -0.2010   -0.1673 H   0  0  0  0  0  0  0  0  0  0  0  0
    2.6703   -1.6986   -0.2429 H   0  0  0  0  0  0  0  0  0  0  0  0
    4.2613   -1.3694    1.7638 H   0  0  0  0  0  0  0  0  0  0  0  0
    5.3743   -3.6262    1.4782 H   0  0  0  0  0  0  0  0  0  0  0  0
    3.7093   -3.6956    0.9091 H   0  0  0  0  0  0  0  0  0  0  0  0
    5.2989   -4.7907   -0.7864 H   0  0  0  0  0  0  0  0  0  0  0  0
    7.2481   -3.0745   -0.2204 H   0  0  0  0  0  0  0  0  0  0  0  0
    6.9351   -3.2559   -1.9359 H   0  0  0  0  0  0  0  0  0  0  0  0
    6.5102   -1.0723   -1.8730 H   0  0  0  0  0  0  0  0  0  0  0  0
    5.7797    0.0690    0.4059 H   0  0  0  0  0  0  0  0  0  0  0  0
    6.7482   -1.2833    0.9602 H   0  0  0  0  0  0  0  0  0  0  0  0
    4.9601   -3.3119   -2.7072 H   0  0  0  0  0  0  0  0  0  0  0  0
    2.1873   -3.3244   -1.6384 H   0  0  0  0  0  0  0  0  0  0  0  0
    2.8383   -4.1663   -3.1083 H   0  0  0  0  0  0  0  0  0  0  0  0
    2.4254    0.1150   -5.3803 H   0  0  0  0  0  0  0  0  0  0  0  0
  1  2  1  0
  1 18  1  0
  1 19  1  0
  1 20  1  0
  2  6  1  0
  2  3  2  0
  3  4  1  0
  3 35  1  0
  4 17  1  0
  4  5  1  0
  5 16  1  0
  5  6  2  0
  7  6  1  6
  7 13  1  0
  7 15  1  0
  7  8  1  0
  8  9  1  0
  8 21  1  0
  8 22  1  0
  9 14  1  0
  9 10  1  0
  9 23  1  1
 10 11  1  0
 10 24  1  0
 10 25  1  0
 11 12  1  0
 11 15  1  0
 11 26  1  1
 12 13  1  0
 12 27  1  0
 12 28  1  0
 13 14  1  0
 13 29  1  6
 14 30  1  0
 14 31  1  0
 15 16  1  0
 15 32  1  6
 16 33  1  0
 16 34  1  0
M  CHG  1   3   1
M  END
>  <i_m_ct_stereo_status>  (79) 
1

>  <s_m_source_file>  (79) 
/var/tmp/pbs.5076255.sched01/tmpsofmo5yl/0au1p7r3z.sdf

>  <i_m_source_file_index>  (79) 
35

>  <i_lp_mmshare_version>  (79) 
48012

>  <i_f3d_flags>  (79) 
0

>  <s_epik_input>  (79) 
W0NIM11jMW5bbkhdYyhjMVtDQF0yMzQpW0NIMl1bQ0BASF00W0NAQEhdNVtDSDJdW0NASF0oW0NIMl0yKVtDSDJdW0NASF0zW0NIMl01

>  <s_epik_cmdline>  (79) 
J2VwaWtfcHl0aG9uJywgJy1waHQnLCAnMi4wJywgJy1waCcsICc3LjAnLCAnLXRuJywgJzgnLCAnLW1hJywgJzIwMCcsICctaW1hZScsICc8aW5maWxlLm1hZT4nLCAnLW9tYWUnLCAnPG91dGZpbGUubWFlPic=

>  <r_lp_tautomer_probability>  (79) 
1

>  <r_epik_Ionization_Penalty>  (79) 
2.80812

>  <r_epik_Ionization_Penalty_Charging>  (79) 
2.80812

>  <r_epik_Ionization_Penalty_Neutral>  (79) 
2.10923e-07

>  <r_epik_State_Penalty>  (79) 
1.87257

>  <r_epik_Charging_Adjusted_Penalty>  (79) 
4.6807

>  <i_epik_Tot_Q>  (79) 
1

>  <i_epik_Tot_abs_Q>  (79) 
1

>  <s_lp_Force_Field>  (79) 
OPLS3e

>  <r_lp_Energy>  (79) 
70.7013

>  <b_lp_Chiralities_Consistent>  (79) 
1

>  <s_lp_Variant>  (79) 
25:0-3

>  <s_i_glide_gridfile>  (79) 
pfpi4k_grid

>  <i_i_glide_lignum>  (79) 
35

>  <i_i_glide_rotatable_bonds>  (79) 
0

>  <r_i_docking_score>  (79) 
-3.24691

>  <r_i_glide_ligand_efficiency>  (79) 
-0.202932

>  <r_i_glide_ligand_efficiency_sa>  (79) 
-0.511356

>  <r_i_glide_ligand_efficiency_ln>  (79) 
-0.860658

>  <r_i_glide_gscore>  (79) 
-3.24691

>  <r_i_glide_lipo>  (79) 
-0.388824

>  <r_i_glide_hbond>  (79) 
-0.144826

>  <r_i_glide_metal>  (79) 
-0

>  <r_i_glide_rewards>  (79) 
-1.94104

>  <r_i_glide_evdw>  (79) 
4.321

>  <r_i_glide_ecoul>  (79) 
-6.54802

>  <r_i_glide_erotb>  (79) 
0

>  <r_i_glide_esite>  (79) 
-0.00606733

>  <r_i_glide_emodel>  (79) 
-5.01618

>  <r_i_glide_energy>  (79) 
-2.22701

>  <r_i_glide_einternal>  (79) 
0

>  <r_i_glide_intrahb_reward>  (79) 
-0

>  <i_i_glide_confnum>  (79) 
1

>  <i_i_glide_posenum>  (79) 
2

>  <r_i_glide_eff_state_penalty>  (79) 
0

>  <ligand_id>  (79) 
25

>  <original_smiles>  (79) 
Cc1n[nH]c2c1C13CC4CC(CC1C4)C3C2

>  <smiles>  (79) 
[H]n1c2c(c(C([H])([H])[H])[n+]1[H])C13C([H])([H])C4([H])C([H])([H])C([H])(C([H])([H])C1([H])C4([H])[H])C3([H])C2([H])[H]

$$$$
26:0:0
     RDKit          3D

 62 66  0  0  1  0  0  0  0  0999 V2000
    2.4882   -3.6293   -0.1517 C   0  0  0  0  0  0  0  0  0  0  0  0
    3.9317   -3.2481    0.0770 C   0  0  0  0  0  0  0  0  0  0  0  0
    4.7952   -3.7307    0.9865 C   0  0  0  0  0  0  0  0  0  0  0  0
    4.6145   -4.8374    1.9278 C   0  0  0  0  0  0  0  0  0  0  0  0
    3.6807   -4.9066    2.9109 C   0  0  0  0  0  0  0  0  0  0  0  0
    2.7642   -3.7624    3.1702 C   0  0  0  0  0  0  0  0  0  0  0  0
    1.8263   -3.7648    3.9747 O   0  0  0  0  0  0  0  0  0  0  0  0
    3.5895   -6.0765    3.9092 C   0  0  0  0  0  0  0  0  0  0  0  0
    3.5733   -7.5647    3.4071 C   0  0  1  0  0  0  0  0  0  0  0  0
    3.5405   -8.3931    4.7251 C   0  0  0  0  0  0  0  0  0  0  0  0
    2.3469   -8.0278    2.5570 C   0  0  1  0  0  0  0  0  0  0  0  0
    1.7011   -6.9714    1.6485 C   0  0  0  0  0  0  0  0  0  0  0  0
    2.8509   -9.2226    1.7159 C   0  0  0  0  0  0  0  0  0  0  0  0
    4.3460   -9.3806    2.0118 C   0  0  1  0  0  0  0  0  0  0  0  0
    5.1120   -9.8498    0.9241 O   0  0  0  0  0  0  0  0  0  0  0  0
    4.8032   -8.0261    2.5753 C   0  0  1  0  0  0  0  0  0  0  0  0
    5.0739   -7.1639    1.4716 O   0  0  0  0  0  0  0  0  0  0  0  0
    5.6702   -5.9284    1.8310 C   0  0  1  0  0  0  0  0  0  0  0  0
    6.8006   -5.5793    0.8334 C   0  0  0  0  0  0  0  0  0  0  0  0
    7.2980   -4.1279    1.0142 C   0  0  1  0  0  0  0  0  0  0  0  0
    8.5904   -3.8258    0.2361 C   0  0  0  0  0  0  0  0  0  0  0  0
    6.1494   -3.0909    0.8151 C   0  0  2  0  0  0  0  0  0  0  0  0
    6.2709   -2.0563    1.7612 O   0  0  0  0  0  0  0  0  0  0  0  0
    6.0556   -2.4232   -0.5758 C   0  0  0  0  0  0  0  0  0  0  0  0
    4.5581   -2.1703   -0.7807 C   0  0  1  0  0  0  0  0  0  0  0  0
    4.1601   -2.1275   -2.2334 C   0  0  0  0  0  0  0  0  0  0  0  0
    3.8190   -0.9864   -3.0003 C   0  0  0  0  0  0  0  0  0  0  0  0
    3.5360   -1.4422   -4.2557 C   0  0  0  0  0  0  0  0  0  0  0  0
    3.6752   -2.7895   -4.3210 O   0  0  0  0  0  0  0  0  0  0  0  0
    4.0690   -3.1897   -3.0925 C   0  0  0  0  0  0  0  0  0  0  0  0
    1.8862   -2.7298   -0.0227 H   0  0  0  0  0  0  0  0  0  0  0  0
    2.1263   -4.3806    0.5498 H   0  0  0  0  0  0  0  0  0  0  0  0
    2.3211   -4.0032   -1.1625 H   0  0  0  0  0  0  0  0  0  0  0  0
    2.9666   -2.8735    2.5815 H   0  0  0  0  0  0  0  0  0  0  0  0
    4.4227   -5.9483    4.6052 H   0  0  0  0  0  0  0  0  0  0  0  0
    2.7003   -5.9549    4.5282 H   0  0  0  0  0  0  0  0  0  0  0  0
    3.4257   -9.4654    4.5636 H   0  0  0  0  0  0  0  0  0  0  0  0
    2.7000   -8.1070    5.3590 H   0  0  0  0  0  0  0  0  0  0  0  0
    4.4430   -8.2543    5.3195 H   0  0  0  0  0  0  0  0  0  0  0  0
    1.5567   -8.3784    3.2218 H   0  0  0  0  0  0  0  0  0  0  0  0
    2.4272   -6.5754    0.9394 H   0  0  0  0  0  0  0  0  0  0  0  0
    1.2836   -6.1492    2.2292 H   0  0  0  0  0  0  0  0  0  0  0  0
    0.8819   -7.4048    1.0741 H   0  0  0  0  0  0  0  0  0  0  0  0
    2.3203  -10.1376    1.9723 H   0  0  0  0  0  0  0  0  0  0  0  0
    2.6874   -9.0627    0.6500 H   0  0  0  0  0  0  0  0  0  0  0  0
    4.4600  -10.1447    2.7838 H   0  0  0  0  0  0  0  0  0  0  0  0
    4.7649  -10.7292    0.6835 H   0  0  0  0  0  0  0  0  0  0  0  0
    5.6963   -8.1596    3.1870 H   0  0  0  0  0  0  0  0  0  0  0  0
    6.1542   -5.9945    2.8072 H   0  0  0  0  0  0  0  0  0  0  0  0
    7.6340   -6.2803    0.9501 H   0  0  0  0  0  0  0  0  0  0  0  0
    6.4170   -5.7001   -0.1769 H   0  0  0  0  0  0  0  0  0  0  0  0
    7.5733   -4.0956    2.0621 H   0  0  0  0  0  0  0  0  0  0  0  0
    8.4732   -3.9464   -0.8409 H   0  0  0  0  0  0  0  0  0  0  0  0
    9.3756   -4.5051    0.5579 H   0  0  0  0  0  0  0  0  0  0  0  0
    8.9446   -2.8121    0.4238 H   0  0  0  0  0  0  0  0  0  0  0  0
    5.5438   -1.4555    1.6615 H   0  0  0  0  0  0  0  0  0  0  0  0
    6.6722   -1.5281   -0.7031 H   0  0  0  0  0  0  0  0  0  0  0  0
    6.3724   -3.1524   -1.3228 H   0  0  0  0  0  0  0  0  0  0  0  0
    4.2666   -1.2148   -0.3430 H   0  0  0  0  0  0  0  0  0  0  0  0
    3.7679    0.0558   -2.7087 H   0  0  0  0  0  0  0  0  0  0  0  0
    3.2299   -0.9678   -5.1728 H   0  0  0  0  0  0  0  0  0  0  0  0
    4.2279   -4.2498   -2.9864 H   0  0  0  0  0  0  0  0  0  0  0  0
  1  2  1  0
  1 31  1  0
  1 32  1  0
  1 33  1  0
  2 25  1  0
  2  3  2  0
  3 22  1  0
  3  4  1  0
  4 18  1  0
  4  5  2  0
  5  6  1  0
  5  8  1  0
  6  7  2  0
  6 34  1  0
  8  9  1  0
  8 35  1  0
  8 36  1  0
  9 16  1  0
  9 10  1  1
  9 11  1  0
 10 37  1  0
 10 38  1  0
 10 39  1  0
 11 12  1  0
 11 13  1  0
 11 40  1  1
 12 41  1  0
 12 42  1  0
 12 43  1  0
 13 14  1  0
 13 44  1  0
 13 45  1  0
 14 15  1  0
 14 16  1  0
 14 46  1  1
 15 47  1  0
 16 17  1  0
 16 48  1  1
 17 18  1  0
 18 19  1  0
 18 49  1  1
 19 20  1  0
 19 50  1  0
 19 51  1  0
 20 21  1  0
 20 22  1  0
 20 52  1  1
 21 53  1  0
 21 54  1  0
 21 55  1  0
 22 23  1  1
 22 24  1  0
 23 56  1  0
 24 25  1  0
 24 57  1  0
 24 58  1  0
 25 26  1  0
 25 59  1  1
 26 30  2  0
 26 27  1  0
 27 28  2  0
 27 60  1  0
 28 29  1  0
 28 61  1  0
 29 30  1  0
 30 62  1  0
M  END
>  <i_m_ct_stereo_status>  (80) 
1

>  <s_m_source_file>  (80) 
/var/tmp/pbs.5076255.sched01/tmpsofmo5yl/0au1p7r3z.sdf

>  <i_m_source_file_index>  (80) 
36

>  <i_lp_mmshare_version>  (80) 
48012

>  <i_f3d_flags>  (80) 
0

>  <s_epik_input>  (80) 
W2NIXTFvW2NIXVtjSF1jMVtDQEBIXShDPTJbQ0gzXSlbQ0gyXVtDQF0oW09IXSkoW0NAQEhdKFtDSDJdMylbQ0gzXSlDMkMoPUMoW0NIXT1PKVtDSDJdNClbQ0BIXTNPW0NAQEhdKFtDQEBdNDVbQ0gzXSlbQ0BIXShbT0hdKVtDSDJdW0NAQEhdNVtDSDNd

>  <s_epik_cmdline>  (80) 
J2VwaWtfcHl0aG9uJywgJy1waHQnLCAnMi4wJywgJy1waCcsICc3LjAnLCAnLXRuJywgJzgnLCAnLW1hJywgJzIwMCcsICctaW1hZScsICc8aW5maWxlLm1hZT4nLCAnLW9tYWUnLCAnPG91dGZpbGUubWFlPic=

>  <r_lp_tautomer_probability>  (80) 
1

>  <r_epik_Ionization_Penalty>  (80) 
9.23511e-07

>  <r_epik_Ionization_Penalty_Charging>  (80) 
0

>  <r_epik_Ionization_Penalty_Neutral>  (80) 
9.23511e-07

>  <r_epik_State_Penalty>  (80) 
-0

>  <r_epik_Charging_Adjusted_Penalty>  (80) 
0

>  <i_epik_Tot_Q>  (80) 
0

>  <i_epik_Tot_abs_Q>  (80) 
0

>  <s_lp_Force_Field>  (80) 
OPLS3e

>  <r_lp_Energy>  (80) 
42.8614

>  <b_lp_Chiralities_Consistent>  (80) 
1

>  <s_lp_Variant>  (80) 
26:0-1

>  <s_i_glide_gridfile>  (80) 
pfpi4k_grid

>  <i_i_glide_lignum>  (80) 
36

>  <i_i_glide_rotatable_bonds>  (80) 
4

>  <r_i_docking_score>  (80) 
-3.96568

>  <r_i_glide_ligand_efficiency>  (80) 
-0.132189

>  <r_i_glide_ligand_efficiency_sa>  (80) 
-0.410743

>  <r_i_glide_ligand_efficiency_ln>  (80) 
-0.901047

>  <r_i_glide_gscore>  (80) 
-3.96568

>  <r_i_glide_lipo>  (80) 
-0.601922

>  <r_i_glide_hbond>  (80) 
-0.280264

>  <r_i_glide_metal>  (80) 
-0

>  <r_i_glide_rewards>  (80) 
-0.596464

>  <r_i_glide_evdw>  (80) 
-30.4769

>  <r_i_glide_ecoul>  (80) 
-7.19155

>  <r_i_glide_erotb>  (80) 
0.115881

>  <r_i_glide_esite>  (80) 
-0.000337318

>  <r_i_glide_emodel>  (80) 
-46.7823

>  <r_i_glide_energy>  (80) 
-37.6684

>  <r_i_glide_einternal>  (80) 
0.44035

>  <r_i_glide_intrahb_reward>  (80) 
-0

>  <i_i_glide_confnum>  (80) 
5

>  <i_i_glide_posenum>  (80) 
21

>  <r_i_glide_eff_state_penalty>  (80) 
0

>  <ligand_id>  (80) 
26

>  <original_smiles>  (80) 
CC1=C2C3=C(C=O)CC4(C)C(C)CC(O)C4OC3CC(C)C2(O)CC1c1ccoc1

>  <smiles>  (80) 
[H]OC1([H])C([H])([H])C([H])(C([H])([H])[H])C2(C([H])([H])[H])C([H])([H])C(C([H])=O)=C3C4=C(C([H])([H])[H])C([H])(c5c([H])oc([H])c5[H])C([H])([H])C4(O[H])C([H])(C([H])([H])[H])C([H])([H])C3([H])OC12[H]

$$$$
26:0:1
     RDKit          3D

 62 66  0  0  1  0  0  0  0  0999 V2000
    2.4789   -3.6489   -0.1149 C   0  0  0  0  0  0  0  0  0  0  0  0
    3.9243   -3.2701    0.0834 C   0  0  0  0  0  0  0  0  0  0  0  0
    4.8046   -3.7510    0.9786 C   0  0  0  0  0  0  0  0  0  0  0  0
    4.6473   -4.8487    1.9292 C   0  0  0  0  0  0  0  0  0  0  0  0
    3.7205   -4.9175    2.9236 C   0  0  0  0  0  0  0  0  0  0  0  0
    2.7919   -3.7979    3.2340 C   0  0  0  0  0  0  0  0  0  0  0  0
    3.0350   -2.6028    3.0682 O   0  0  0  0  0  0  0  0  0  0  0  0
    3.6358   -6.0816    3.9233 C   0  0  0  0  0  0  0  0  0  0  0  0
    3.6319   -7.5757    3.4287 C   0  0  1  0  0  0  0  0  0  0  0  0
    3.6219   -8.4097    4.7452 C   0  0  0  0  0  0  0  0  0  0  0  0
    2.4045   -8.0531    2.5876 C   0  0  1  0  0  0  0  0  0  0  0  0
    1.7391   -7.0019    1.6878 C   0  0  0  0  0  0  0  0  0  0  0  0
    2.9089   -9.2432    1.7389 C   0  0  0  0  0  0  0  0  0  0  0  0
    4.4069   -9.3875    2.0198 C   0  0  1  0  0  0  0  0  0  0  0  0
    5.1658   -9.8466    0.9270 O   0  0  0  0  0  0  0  0  0  0  0  0
    4.8576   -8.0299    2.5843 C   0  0  1  0  0  0  0  0  0  0  0  0
    5.1186   -7.1684    1.4793 O   0  0  0  0  0  0  0  0  0  0  0  0
    5.7104   -5.9318    1.8341 C   0  0  1  0  0  0  0  0  0  0  0  0
    6.8285   -5.5692    0.8257 C   0  0  0  0  0  0  0  0  0  0  0  0
    7.3104   -4.1116    1.0079 C   0  0  1  0  0  0  0  0  0  0  0  0
    8.5926   -3.7943    0.2166 C   0  0  0  0  0  0  0  0  0  0  0  0
    6.1449   -3.0871    0.8107 C   0  0  2  0  0  0  0  0  0  0  0  0
    6.2192   -2.0420    1.7466 O   0  0  0  0  0  0  0  0  0  0  0  0
    6.0323   -2.4150   -0.5745 C   0  0  0  0  0  0  0  0  0  0  0  0
    4.5298   -2.1756   -0.7707 C   0  0  1  0  0  0  0  0  0  0  0  0
    4.1171   -2.1345   -2.2162 C   0  0  0  0  0  0  0  0  0  0  0  0
    3.7469   -0.9966   -2.9835 C   0  0  0  0  0  0  0  0  0  0  0  0
    3.4437   -1.4481   -4.2305 C   0  0  0  0  0  0  0  0  0  0  0  0
    3.6208   -2.7917   -4.3120 O   0  0  0  0  0  0  0  0  0  0  0  0
    4.0337   -3.1929   -3.0807 C   0  0  0  0  0  0  0  0  0  0  0  0
    1.8722   -2.7515    0.0341 H   0  0  0  0  0  0  0  0  0  0  0  0
    2.1390   -4.4022    0.5933 H   0  0  0  0  0  0  0  0  0  0  0  0
    2.3006   -4.0212   -1.1239 H   0  0  0  0  0  0  0  0  0  0  0  0
    1.8456   -4.1020    3.6869 H   0  0  0  0  0  0  0  0  0  0  0  0
    4.4717   -5.9497    4.6136 H   0  0  0  0  0  0  0  0  0  0  0  0
    2.7475   -5.9377    4.5419 H   0  0  0  0  0  0  0  0  0  0  0  0
    3.5183   -9.4826    4.5807 H   0  0  0  0  0  0  0  0  0  0  0  0
    2.7846   -8.1347    5.3882 H   0  0  0  0  0  0  0  0  0  0  0  0
    4.5326   -8.2658    5.3282 H   0  0  0  0  0  0  0  0  0  0  0  0
    1.6251   -8.4133    3.2615 H   0  0  0  0  0  0  0  0  0  0  0  0
    2.4542   -6.5976    0.9718 H   0  0  0  0  0  0  0  0  0  0  0  0
    1.3212   -6.1845    2.2745 H   0  0  0  0  0  0  0  0  0  0  0  0
    0.9187   -7.4419    1.1199 H   0  0  0  0  0  0  0  0  0  0  0  0
    2.3884  -10.1648    1.9986 H   0  0  0  0  0  0  0  0  0  0  0  0
    2.7326   -9.0785    0.6771 H   0  0  0  0  0  0  0  0  0  0  0  0
    4.5395  -10.1514    2.7870 H   0  0  0  0  0  0  0  0  0  0  0  0
    4.8118  -10.7247    0.6757 H   0  0  0  0  0  0  0  0  0  0  0  0
    5.7603   -8.1565    3.1829 H   0  0  0  0  0  0  0  0  0  0  0  0
    6.1982   -5.9936    2.8086 H   0  0  0  0  0  0  0  0  0  0  0  0
    7.6656   -6.2651    0.9301 H   0  0  0  0  0  0  0  0  0  0  0  0
    6.4354   -5.6872   -0.1817 H   0  0  0  0  0  0  0  0  0  0  0  0
    7.5998   -4.0796    2.0537 H   0  0  0  0  0  0  0  0  0  0  0  0
    8.4627   -3.9133   -0.8603 H   0  0  0  0  0  0  0  0  0  0  0  0
    9.3917   -4.4649    0.5265 H   0  0  0  0  0  0  0  0  0  0  0  0
    8.9366   -2.7754    0.4034 H   0  0  0  0  0  0  0  0  0  0  0  0
    6.2959   -2.4256    2.6090 H   0  0  0  0  0  0  0  0  0  0  0  0
    6.6410   -1.5138   -0.6916 H   0  0  0  0  0  0  0  0  0  0  0  0
    6.3552   -3.1362   -1.3269 H   0  0  0  0  0  0  0  0  0  0  0  0
    4.2419   -1.2300   -0.3116 H   0  0  0  0  0  0  0  0  0  0  0  0
    3.6850    0.0347   -2.6786 H   0  0  0  0  0  0  0  0  0  0  0  0
    3.1039   -0.9674   -5.1320 H   0  0  0  0  0  0  0  0  0  0  0  0
    4.2087   -4.2509   -2.9827 H   0  0  0  0  0  0  0  0  0  0  0  0
  1  2  1  0
  1 31  1  0
  1 32  1  0
  1 33  1  0
  2 25  1  0
  2  3  2  0
  3 22  1  0
  3  4  1  0
  4 18  1  0
  4  5  2  0
  5  6  1  0
  5  8  1  0
  6  7  2  0
  6 34  1  0
  8  9  1  0
  8 35  1  0
  8 36  1  0
  9 16  1  0
  9 10  1  1
  9 11  1  0
 10 37  1  0
 10 38  1  0
 10 39  1  0
 11 12  1  0
 11 13  1  0
 11 40  1  1
 12 41  1  0
 12 42  1  0
 12 43  1  0
 13 14  1  0
 13 44  1  0
 13 45  1  0
 14 15  1  0
 14 16  1  0
 14 46  1  1
 15 47  1  0
 16 17  1  0
 16 48  1  1
 17 18  1  0
 18 19  1  0
 18 49  1  1
 19 20  1  0
 19 50  1  0
 19 51  1  0
 20 21  1  0
 20 22  1  0
 20 52  1  1
 21 53  1  0
 21 54  1  0
 21 55  1  0
 22 23  1  1
 22 24  1  0
 23 56  1  0
 24 25  1  0
 24 57  1  0
 24 58  1  0
 25 26  1  0
 25 59  1  1
 26 30  2  0
 26 27  1  0
 27 28  2  0
 27 60  1  0
 28 29  1  0
 28 61  1  0
 29 30  1  0
 30 62  1  0
M  END
>  <i_m_ct_stereo_status>  (81) 
1

>  <s_m_source_file>  (81) 
/var/tmp/pbs.5076255.sched01/tmpsofmo5yl/0au1p7r3z.sdf

>  <i_m_source_file_index>  (81) 
36

>  <i_lp_mmshare_version>  (81) 
48012

>  <i_f3d_flags>  (81) 
0

>  <s_epik_input>  (81) 
W2NIXTFvW2NIXVtjSF1jMVtDQEBIXShDPTJbQ0gzXSlbQ0gyXVtDQF0oW09IXSkoW0NAQEhdKFtDSDJdMylbQ0gzXSlDMkMoPUMoW0NIXT1PKVtDSDJdNClbQ0BIXTNPW0NAQEhdKFtDQEBdNDVbQ0gzXSlbQ0BIXShbT0hdKVtDSDJdW0NAQEhdNVtDSDNd

>  <s_epik_cmdline>  (81) 
J2VwaWtfcHl0aG9uJywgJy1waHQnLCAnMi4wJywgJy1waCcsICc3LjAnLCAnLXRuJywgJzgnLCAnLW1hJywgJzIwMCcsICctaW1hZScsICc8aW5maWxlLm1hZT4nLCAnLW9tYWUnLCAnPG91dGZpbGUubWFlPic=

>  <r_lp_tautomer_probability>  (81) 
1

>  <r_epik_Ionization_Penalty>  (81) 
9.23511e-07

>  <r_epik_Ionization_Penalty_Charging>  (81) 
0

>  <r_epik_Ionization_Penalty_Neutral>  (81) 
9.23511e-07

>  <r_epik_State_Penalty>  (81) 
-0

>  <r_epik_Charging_Adjusted_Penalty>  (81) 
0

>  <i_epik_Tot_Q>  (81) 
0

>  <i_epik_Tot_abs_Q>  (81) 
0

>  <s_lp_Force_Field>  (81) 
OPLS3e

>  <r_lp_Energy>  (81) 
42.8614

>  <b_lp_Chiralities_Consistent>  (81) 
1

>  <s_lp_Variant>  (81) 
26:0-1

>  <s_i_glide_gridfile>  (81) 
pfpi4k_grid

>  <i_i_glide_lignum>  (81) 
36

>  <i_i_glide_rotatable_bonds>  (81) 
4

>  <r_i_docking_score>  (81) 
-3.86901

>  <r_i_glide_ligand_efficiency>  (81) 
-0.128967

>  <r_i_glide_ligand_efficiency_sa>  (81) 
-0.40073

>  <r_i_glide_ligand_efficiency_ln>  (81) 
-0.879081

>  <r_i_glide_gscore>  (81) 
-3.86901

>  <r_i_glide_lipo>  (81) 
-0.585851

>  <r_i_glide_hbond>  (81) 
-0.280562

>  <r_i_glide_metal>  (81) 
-0

>  <r_i_glide_rewards>  (81) 
-0.596464

>  <r_i_glide_evdw>  (81) 
-30.8639

>  <r_i_glide_ecoul>  (81) 
-6.52433

>  <r_i_glide_erotb>  (81) 
0.115881

>  <r_i_glide_esite>  (81) 
-0.000165825

>  <r_i_glide_emodel>  (81) 
-43.8592

>  <r_i_glide_energy>  (81) 
-37.3883

>  <r_i_glide_einternal>  (81) 
5.27047

>  <r_i_glide_intrahb_reward>  (81) 
-0

>  <i_i_glide_confnum>  (81) 
2

>  <i_i_glide_posenum>  (81) 
8

>  <r_i_glide_eff_state_penalty>  (81) 
0

>  <ligand_id>  (81) 
26

>  <original_smiles>  (81) 
CC1=C2C3=C(C=O)CC4(C)C(C)CC(O)C4OC3CC(C)C2(O)CC1c1ccoc1

>  <smiles>  (81) 
[H]OC1([H])C([H])([H])C([H])(C([H])([H])[H])C2(C([H])([H])[H])C([H])([H])C(C([H])=O)=C3C4=C(C([H])([H])[H])C([H])(c5c([H])oc([H])c5[H])C([H])([H])C4(O[H])C([H])(C([H])([H])[H])C([H])([H])C3([H])OC12[H]

$$$$
26:0:2
     RDKit          3D

 62 66  0  0  1  0  0  0  0  0999 V2000
    2.2786   -6.9176    1.5145 C   0  0  0  0  0  0  0  0  0  0  0  0
    2.3418   -6.5303    2.9844 C   0  0  0  0  0  0  0  0  0  0  0  0
    3.1074   -5.5965    3.5833 C   0  0  0  0  0  0  0  0  0  0  0  0
    3.9947   -4.6084    2.9649 C   0  0  0  0  0  0  0  0  0  0  0  0
    5.0792   -4.8867    2.1944 C   0  0  0  0  0  0  0  0  0  0  0  0
    5.5165   -6.2942    1.9725 C   0  0  0  0  0  0  0  0  0  0  0  0
    6.4756   -6.6405    1.2798 O   0  0  0  0  0  0  0  0  0  0  0  0
    6.0127   -3.8025    1.6227 C   0  0  0  0  0  0  0  0  0  0  0  0
    5.4437   -2.5630    0.8526 C   0  0  1  0  0  0  0  0  0  0  0  0
    6.7009   -1.7095    0.5287 C   0  0  0  0  0  0  0  0  0  0  0  0
    4.7315   -2.8358   -0.5045 C   0  0  1  0  0  0  0  0  0  0  0  0
    3.9653   -4.1593   -0.6110 C   0  0  0  0  0  0  0  0  0  0  0  0
    3.7677   -1.6495   -0.7182 C   0  0  0  0  0  0  0  0  0  0  0  0
    3.8435   -0.7786    0.5360 C   0  0  1  0  0  0  0  0  0  0  0  0
    2.6164   -0.1849    0.8921 O   0  0  0  0  0  0  0  0  0  0  0  0
    4.4358   -1.6710    1.6318 C   0  0  1  0  0  0  0  0  0  0  0  0
    3.3606   -2.4134    2.2000 O   0  0  0  0  0  0  0  0  0  0  0  0
    3.7019   -3.1642    3.3488 C   0  0  1  0  0  0  0  0  0  0  0  0
    2.5921   -3.0403    4.4254 C   0  0  0  0  0  0  0  0  0  0  0  0
    2.8188   -4.0441    5.5841 C   0  0  1  0  0  0  0  0  0  0  0  0
    1.8923   -3.7752    6.7861 C   0  0  0  0  0  0  0  0  0  0  0  0
    2.8214   -5.5208    5.0717 C   0  0  2  0  0  0  0  0  0  0  0  0
    3.8073   -6.2371    5.7864 O   0  0  0  0  0  0  0  0  0  0  0  0
    1.4932   -6.2928    5.1984 C   0  0  0  0  0  0  0  0  0  0  0  0
    1.4599   -7.2456    3.9864 C   0  0  1  0  0  0  0  0  0  0  0  0
    0.0624   -7.6276    3.5355 C   0  0  0  0  0  0  0  0  0  0  0  0
   -0.3094   -8.5479    2.5139 C   0  0  0  0  0  0  0  0  0  0  0  0
   -1.6728   -8.5743    2.4780 C   0  0  0  0  0  0  0  0  0  0  0  0
   -2.1853   -7.7423    3.4147 O   0  0  0  0  0  0  0  0  0  0  0  0
   -1.1267   -7.1959    4.0600 C   0  0  0  0  0  0  0  0  0  0  0  0
    2.5157   -7.9794    1.4027 H   0  0  0  0  0  0  0  0  0  0  0  0
    2.9729   -6.3571    0.8903 H   0  0  0  0  0  0  0  0  0  0  0  0
    1.2754   -6.7542    1.1214 H   0  0  0  0  0  0  0  0  0  0  0  0
    4.9268   -7.0488    2.4852 H   0  0  0  0  0  0  0  0  0  0  0  0
    6.5892   -3.4349    2.4672 H   0  0  0  0  0  0  0  0  0  0  0  0
    6.7464   -4.2632    0.9627 H   0  0  0  0  0  0  0  0  0  0  0  0
    6.4807   -0.8461   -0.0979 H   0  0  0  0  0  0  0  0  0  0  0  0
    7.4481   -2.2967   -0.0085 H   0  0  0  0  0  0  0  0  0  0  0  0
    7.1768   -1.3303    1.4323 H   0  0  0  0  0  0  0  0  0  0  0  0
    5.4645   -2.8418   -1.3092 H   0  0  0  0  0  0  0  0  0  0  0  0
    3.1931   -4.2351    0.1543 H   0  0  0  0  0  0  0  0  0  0  0  0
    4.6320   -5.0191   -0.5421 H   0  0  0  0  0  0  0  0  0  0  0  0
    3.4696   -4.2276   -1.5769 H   0  0  0  0  0  0  0  0  0  0  0  0
    4.0304   -1.0693   -1.6030 H   0  0  0  0  0  0  0  0  0  0  0  0
    2.7502   -2.0114   -0.8721 H   0  0  0  0  0  0  0  0  0  0  0  0
    4.5321    0.0445    0.3411 H   0  0  0  0  0  0  0  0  0  0  0  0
    1.9417   -0.4784    0.2790 H   0  0  0  0  0  0  0  0  0  0  0  0
    4.9172   -1.0603    2.3956 H   0  0  0  0  0  0  0  0  0  0  0  0
    4.6083   -2.7726    3.8126 H   0  0  0  0  0  0  0  0  0  0  0  0
    2.5734   -2.0175    4.8104 H   0  0  0  0  0  0  0  0  0  0  0  0
    1.6198   -3.2165    3.9672 H   0  0  0  0  0  0  0  0  0  0  0  0
    3.8237   -3.8217    5.9451 H   0  0  0  0  0  0  0  0  0  0  0  0
    0.8359   -3.8484    6.5257 H   0  0  0  0  0  0  0  0  0  0  0  0
    2.0606   -2.7734    7.1768 H   0  0  0  0  0  0  0  0  0  0  0  0
    2.0890   -4.4769    7.5946 H   0  0  0  0  0  0  0  0  0  0  0  0
    4.6157   -5.7534    5.7377 H   0  0  0  0  0  0  0  0  0  0  0  0
    1.3381   -6.7859    6.1606 H   0  0  0  0  0  0  0  0  0  0  0  0
    0.7006   -5.5542    5.0763 H   0  0  0  0  0  0  0  0  0  0  0  0
    1.9718   -8.1747    4.2467 H   0  0  0  0  0  0  0  0  0  0  0  0
    0.3332   -9.1300    1.8707 H   0  0  0  0  0  0  0  0  0  0  0  0
   -2.4055   -9.1034    1.8839 H   0  0  0  0  0  0  0  0  0  0  0  0
   -1.3945   -6.5312    4.8651 H   0  0  0  0  0  0  0  0  0  0  0  0
  1  2  1  0
  1 31  1  0
  1 32  1  0
  1 33  1  0
  2 25  1  0
  2  3  2  0
  3 22  1  0
  3  4  1  0
  4 18  1  0
  4  5  2  0
  5  6  1  0
  5  8  1  0
  6  7  2  0
  6 34  1  0
  8  9  1  0
  8 35  1  0
  8 36  1  0
  9 16  1  0
  9 10  1  6
  9 11  1  0
 10 37  1  0
 10 38  1  0
 10 39  1  0
 11 12  1  0
 11 13  1  0
 11 40  1  6
 12 41  1  0
 12 42  1  0
 12 43  1  0
 13 14  1  0
 13 44  1  0
 13 45  1  0
 14 15  1  0
 14 16  1  0
 14 46  1  6
 15 47  1  0
 16 17  1  0
 16 48  1  1
 17 18  1  0
 18 19  1  0
 18 49  1  1
 19 20  1  0
 19 50  1  0
 19 51  1  0
 20 21  1  0
 20 22  1  0
 20 52  1  1
 21 53  1  0
 21 54  1  0
 21 55  1  0
 22 23  1  1
 22 24  1  0
 23 56  1  0
 24 25  1  0
 24 57  1  0
 24 58  1  0
 25 26  1  0
 25 59  1  1
 26 30  2  0
 26 27  1  0
 27 28  2  0
 27 60  1  0
 28 29  1  0
 28 61  1  0
 29 30  1  0
 30 62  1  0
M  END
>  <i_m_ct_stereo_status>  (82) 
1

>  <s_m_source_file>  (82) 
/var/tmp/pbs.5076255.sched01/tmpsofmo5yl/0au1p7r3z.sdf

>  <i_m_source_file_index>  (82) 
36

>  <i_lp_mmshare_version>  (82) 
48012

>  <i_f3d_flags>  (82) 
0

>  <s_epik_input>  (82) 
W2NIXTFvW2NIXVtjSF1jMVtDQEBIXShDPTJbQ0gzXSlbQ0gyXVtDQF0oW09IXSkoW0NAQEhdKFtDSDJdMylbQ0gzXSlDMkMoPUMoW0NIXT1PKVtDSDJdNClbQ0BIXTNPW0NAQEhdKFtDQEBdNDVbQ0gzXSlbQ0BIXShbT0hdKVtDSDJdW0NAQEhdNVtDSDNd

>  <s_epik_cmdline>  (82) 
J2VwaWtfcHl0aG9uJywgJy1waHQnLCAnMi4wJywgJy1waCcsICc3LjAnLCAnLXRuJywgJzgnLCAnLW1hJywgJzIwMCcsICctaW1hZScsICc8aW5maWxlLm1hZT4nLCAnLW9tYWUnLCAnPG91dGZpbGUubWFlPic=

>  <r_lp_tautomer_probability>  (82) 
1

>  <r_epik_Ionization_Penalty>  (82) 
9.23511e-07

>  <r_epik_Ionization_Penalty_Charging>  (82) 
0

>  <r_epik_Ionization_Penalty_Neutral>  (82) 
9.23511e-07

>  <r_epik_State_Penalty>  (82) 
-0

>  <r_epik_Charging_Adjusted_Penalty>  (82) 
0

>  <i_epik_Tot_Q>  (82) 
0

>  <i_epik_Tot_abs_Q>  (82) 
0

>  <s_lp_Force_Field>  (82) 
OPLS3e

>  <r_lp_Energy>  (82) 
42.8614

>  <b_lp_Chiralities_Consistent>  (82) 
1

>  <s_lp_Variant>  (82) 
26:0-1

>  <s_i_glide_gridfile>  (82) 
pfpi4k_grid

>  <i_i_glide_lignum>  (82) 
36

>  <i_i_glide_rotatable_bonds>  (82) 
4

>  <r_i_docking_score>  (82) 
-2.9046

>  <r_i_glide_ligand_efficiency>  (82) 
-0.09682

>  <r_i_glide_ligand_efficiency_sa>  (82) 
-0.300842

>  <r_i_glide_ligand_efficiency_ln>  (82) 
-0.659957

>  <r_i_glide_gscore>  (82) 
-2.9046

>  <r_i_glide_lipo>  (82) 
-0.304483

>  <r_i_glide_hbond>  (82) 
0

>  <r_i_glide_metal>  (82) 
-0

>  <r_i_glide_rewards>  (82) 
-0.650732

>  <r_i_glide_evdw>  (82) 
-27.0705

>  <r_i_glide_ecoul>  (82) 
-4.74495

>  <r_i_glide_erotb>  (82) 
0.115881

>  <r_i_glide_esite>  (82) 
0

>  <r_i_glide_emodel>  (82) 
-37.2984

>  <r_i_glide_energy>  (82) 
-31.8154

>  <r_i_glide_einternal>  (82) 
2.44604

>  <r_i_glide_intrahb_reward>  (82) 
-0

>  <i_i_glide_confnum>  (82) 
5

>  <i_i_glide_posenum>  (82) 
3

>  <r_i_glide_eff_state_penalty>  (82) 
0

>  <ligand_id>  (82) 
26

>  <original_smiles>  (82) 
CC1=C2C3=C(C=O)CC4(C)C(C)CC(O)C4OC3CC(C)C2(O)CC1c1ccoc1

>  <smiles>  (82) 
[H]OC1([H])C([H])([H])C([H])(C([H])([H])[H])C2(C([H])([H])[H])C([H])([H])C(C([H])=O)=C3C4=C(C([H])([H])[H])C([H])(c5c([H])oc([H])c5[H])C([H])([H])C4(O[H])C([H])(C([H])([H])[H])C([H])([H])C3([H])OC12[H]

$$$$
28:0:0
     RDKit          3D

 30 30  0  0  1  0  0  0  0  0999 V2000
   -1.2489   -8.4804    3.2712 C   0  0  0  0  0  0  0  0  0  0  0  0
    0.0495   -8.5991    2.7464 O   0  0  0  0  0  0  0  0  0  0  0  0
    0.6384   -7.5698    2.0959 C   0  0  0  0  0  0  0  0  0  0  0  0
    0.0314   -6.5068    1.9554 O   0  0  0  0  0  0  0  0  0  0  0  0
    2.0053   -7.8975    1.5702 C   0  0  0  0  0  0  0  0  0  0  0  0
    2.3569   -9.3913    1.5551 C   0  0  0  0  0  0  0  0  0  0  0  0
    2.9098   -6.9558    1.0818 C   0  0  0  0  0  0  0  0  0  0  0  0
    2.6270   -5.4664    1.0364 C   0  0  0  0  0  0  0  0  0  0  0  0
    3.3530   -4.5903    0.4910 N   0  0  0  0  0  0  0  0  0  0  0  0
    4.2737   -7.3771    0.5003 C   0  0  0  0  0  0  0  0  0  0  0  0
    5.5192   -6.8746    1.2260 C   0  0  0  0  0  0  0  0  0  0  0  0
    6.1300   -7.6259    2.2591 C   0  0  0  0  0  0  0  0  0  0  0  0
    7.2442   -7.0939    2.9296 C   0  0  0  0  0  0  0  0  0  0  0  0
    7.7639   -5.8697    2.6549 N   0  0  0  0  0  0  0  0  0  0  0  0
    7.2196   -5.1826    1.6388 C   0  0  0  0  0  0  0  0  0  0  0  0
    6.1472   -5.6575    0.8669 C   0  0  0  0  0  0  0  0  0  0  0  0
   -1.5614   -9.4396    3.6833 H   0  0  0  0  0  0  0  0  0  0  0  0
   -1.9692   -8.1800    2.5057 H   0  0  0  0  0  0  0  0  0  0  0  0
   -1.2696   -7.7333    4.0679 H   0  0  0  0  0  0  0  0  0  0  0  0
    1.7024  -10.0867    2.0884 H   0  0  0  0  0  0  0  0  0  0  0  0
    3.3429   -9.5867    1.9717 H   0  0  0  0  0  0  0  0  0  0  0  0
    2.3782   -9.7659    0.5323 H   0  0  0  0  0  0  0  0  0  0  0  0
    1.7265   -5.1129    1.5365 H   0  0  0  0  0  0  0  0  0  0  0  0
    3.0129   -3.6641    0.6300 H   0  0  0  0  0  0  0  0  0  0  0  0
    4.3880   -8.4516    0.4116 H   0  0  0  0  0  0  0  0  0  0  0  0
    4.3339   -7.0518   -0.5352 H   0  0  0  0  0  0  0  0  0  0  0  0
    5.7349   -8.5923    2.5432 H   0  0  0  0  0  0  0  0  0  0  0  0
    7.7433   -7.6455    3.7189 H   0  0  0  0  0  0  0  0  0  0  0  0
    7.6302   -4.1954    1.4475 H   0  0  0  0  0  0  0  0  0  0  0  0
    5.7864   -5.0504    0.0460 H   0  0  0  0  0  0  0  0  0  0  0  0
  1  2  1  0
  1 17  1  0
  1 18  1  0
  1 19  1  0
  2  3  1  0
  3  4  2  0
  3  5  1  0
  5  6  1  0
  5  7  2  3
  6 20  1  0
  6 21  1  0
  6 22  1  0
  7  8  1  0
  7 10  1  0
  8  9  2  3
  8 23  1  0
  9 24  1  0
 10 11  1  0
 10 25  1  0
 10 26  1  0
 11 16  2  0
 11 12  1  0
 12 13  2  0
 12 27  1  0
 13 14  1  0
 13 28  1  0
 14 15  2  0
 15 16  1  0
 15 29  1  0
 16 30  1  0
M  END
>  <i_m_ct_stereo_status>  (83) 
1

>  <s_m_source_file>  (83) 
/var/tmp/pbs.5076255.sched01/tmpsofmo5yl/0au1p7r3z.sdf

>  <i_m_source_file_index>  (83) 
39

>  <i_lp_mmshare_version>  (83) 
48012

>  <i_f3d_flags>  (83) 
0

>  <s_epik_input>  (83) 
W0NIM11PQyg9TykvQyhbQ0gzXSk9QyhcW0NIXT1OXFtIXSlbQ0gyXWMxW2NIXVtjSF1uW2NIXVtjSF0x

>  <s_epik_cmdline>  (83) 
J2VwaWtfcHl0aG9uJywgJy1waHQnLCAnMi4wJywgJy1waCcsICc3LjAnLCAnLXRuJywgJzgnLCAnLW1hJywgJzIwMCcsICctaW1hZScsICc8aW5maWxlLm1hZT4nLCAnLW9tYWUnLCAnPG91dGZpbGUubWFlPic=

>  <r_epik_Ionization_Penalty>  (83) 
0.00102507

>  <r_epik_Ionization_Penalty_Charging>  (83) 
0

>  <r_epik_Ionization_Penalty_Neutral>  (83) 
0.00102507

>  <r_epik_State_Penalty>  (83) 
0.000669326

>  <r_epik_Charging_Adjusted_Penalty>  (83) 
0.000669326

>  <i_epik_Tot_Q>  (83) 
0

>  <i_epik_Tot_abs_Q>  (83) 
0

>  <s_epik_Chemistry_Notes>  (83) 
This compound has an ester and may undergo hydrolysis at high or low pH. This compound has an imine and may undergo hydrolysis.

>  <s_lp_Force_Field>  (83) 
OPLS3e

>  <r_lp_Energy>  (83) 
27.0343

>  <b_lp_Chiralities_Consistent>  (83) 
1

>  <s_lp_Variant>  (83) 
28:0-1

>  <s_i_glide_gridfile>  (83) 
pfpi4k_grid

>  <i_i_glide_lignum>  (83) 
39

>  <i_i_glide_rotatable_bonds>  (83) 
5

>  <r_i_docking_score>  (83) 
-2.89925

>  <r_i_glide_ligand_efficiency>  (83) 
-0.181203

>  <r_i_glide_ligand_efficiency_sa>  (83) 
-0.456603

>  <r_i_glide_ligand_efficiency_ln>  (83) 
-0.768504

>  <r_i_glide_gscore>  (83) 
-2.89925

>  <r_i_glide_lipo>  (83) 
-0.532762

>  <r_i_glide_hbond>  (83) 
-0.229728

>  <r_i_glide_metal>  (83) 
-0

>  <r_i_glide_rewards>  (83) 
-1.92101

>  <r_i_glide_evdw>  (83) 
-19.1791

>  <r_i_glide_ecoul>  (83) 
-1.57544

>  <r_i_glide_erotb>  (83) 
1.05818

>  <r_i_glide_esite>  (83) 
-0.0786573

>  <r_i_glide_emodel>  (83) 
-22.1947

>  <r_i_glide_energy>  (83) 
-20.7545

>  <r_i_glide_einternal>  (83) 
3.28238

>  <r_i_glide_intrahb_reward>  (83) 
-0

>  <i_i_glide_confnum>  (83) 
6

>  <i_i_glide_posenum>  (83) 
12

>  <r_i_glide_eff_state_penalty>  (83) 
0

>  <ligand_id>  (83) 
28

>  <original_smiles>  (83) 
COC(=O)C(C)=C(C=N)Cc1ccncc1

>  <smiles>  (83) 
[H]N=C([H])C(=C(C(=O)OC([H])([H])[H])C([H])([H])[H])C([H])([H])c1c([H])c([H])nc([H])c1[H]

$$$$
28:0:1
     RDKit          3D

 30 30  0  0  1  0  0  0  0  0999 V2000
    1.9138   -0.3723    1.7346 C   0  0  0  0  0  0  0  0  0  0  0  0
    0.8309    0.0947    2.5020 O   0  0  0  0  0  0  0  0  0  0  0  0
    0.8584    1.3376    3.0273 C   0  0  0  0  0  0  0  0  0  0  0  0
    1.8399    2.0753    2.9031 O   0  0  0  0  0  0  0  0  0  0  0  0
   -0.3726    1.6572    3.8157 C   0  0  0  0  0  0  0  0  0  0  0  0
   -1.1502    0.4357    4.3563 C   0  0  0  0  0  0  0  0  0  0  0  0
   -0.8173    2.9288    4.1110 C   0  0  0  0  0  0  0  0  0  0  0  0
   -0.1444    4.1972    3.6716 C   0  0  0  0  0  0  0  0  0  0  0  0
   -0.5416    5.3592    3.9701 N   0  0  0  0  0  0  0  0  0  0  0  0
   -2.0743    3.1687    4.9657 C   0  0  0  0  0  0  0  0  0  0  0  0
   -1.8344    3.2431    6.4606 C   0  0  0  0  0  0  0  0  0  0  0  0
   -2.8456    2.8550    7.3772 C   0  0  0  0  0  0  0  0  0  0  0  0
   -2.5861    2.9439    8.7558 C   0  0  0  0  0  0  0  0  0  0  0  0
   -1.4185    3.3859    9.2680 N   0  0  0  0  0  0  0  0  0  0  0  0
   -0.4622    3.7674    8.3998 C   0  0  0  0  0  0  0  0  0  0  0  0
   -0.6184    3.7202    7.0085 C   0  0  0  0  0  0  0  0  0  0  0  0
    1.7466   -1.4214    1.4871 H   0  0  0  0  0  0  0  0  0  0  0  0
    2.8705   -0.2901    2.2633 H   0  0  0  0  0  0  0  0  0  0  0  0
    1.9800    0.2043    0.8094 H   0  0  0  0  0  0  0  0  0  0  0  0
   -0.8783   -0.5523    3.9798 H   0  0  0  0  0  0  0  0  0  0  0  0
   -2.1982    0.5118    4.1117 H   0  0  0  0  0  0  0  0  0  0  0  0
   -1.0649    0.3794    5.4384 H   0  0  0  0  0  0  0  0  0  0  0  0
    0.7369    4.1178    3.0336 H   0  0  0  0  0  0  0  0  0  0  0  0
    0.0658    6.0373    3.5263 H   0  0  0  0  0  0  0  0  0  0  0  0
   -2.5803    4.0896    4.6714 H   0  0  0  0  0  0  0  0  0  0  0  0
   -2.8513    2.4308    4.7589 H   0  0  0  0  0  0  0  0  0  0  0  0
   -3.8035    2.5105    7.0244 H   0  0  0  0  0  0  0  0  0  0  0  0
   -3.3332    2.6505    9.4856 H   0  0  0  0  0  0  0  0  0  0  0  0
    0.4668    4.1271    8.8281 H   0  0  0  0  0  0  0  0  0  0  0  0
    0.1958    4.0607    6.3883 H   0  0  0  0  0  0  0  0  0  0  0  0
  1  2  1  0
  1 17  1  0
  1 18  1  0
  1 19  1  0
  2  3  1  0
  3  4  2  0
  3  5  1  0
  5  6  1  0
  5  7  2  3
  6 20  1  0
  6 21  1  0
  6 22  1  0
  7  8  1  0
  7 10  1  0
  8  9  2  3
  8 23  1  0
  9 24  1  0
 10 11  1  0
 10 25  1  0
 10 26  1  0
 11 16  2  0
 11 12  1  0
 12 13  2  0
 12 27  1  0
 13 14  1  0
 13 28  1  0
 14 15  2  0
 15 16  1  0
 15 29  1  0
 16 30  1  0
M  END
>  <i_m_ct_stereo_status>  (84) 
1

>  <s_m_source_file>  (84) 
/var/tmp/pbs.5076255.sched01/tmpsofmo5yl/0au1p7r3z.sdf

>  <i_m_source_file_index>  (84) 
39

>  <i_lp_mmshare_version>  (84) 
48012

>  <i_f3d_flags>  (84) 
0

>  <s_epik_input>  (84) 
W0NIM11PQyg9TykvQyhbQ0gzXSk9QyhcW0NIXT1OXFtIXSlbQ0gyXWMxW2NIXVtjSF1uW2NIXVtjSF0x

>  <s_epik_cmdline>  (84) 
J2VwaWtfcHl0aG9uJywgJy1waHQnLCAnMi4wJywgJy1waCcsICc3LjAnLCAnLXRuJywgJzgnLCAnLW1hJywgJzIwMCcsICctaW1hZScsICc8aW5maWxlLm1hZT4nLCAnLW9tYWUnLCAnPG91dGZpbGUubWFlPic=

>  <r_epik_Ionization_Penalty>  (84) 
0.00102507

>  <r_epik_Ionization_Penalty_Charging>  (84) 
0

>  <r_epik_Ionization_Penalty_Neutral>  (84) 
0.00102507

>  <r_epik_State_Penalty>  (84) 
0.000669326

>  <r_epik_Charging_Adjusted_Penalty>  (84) 
0.000669326

>  <i_epik_Tot_Q>  (84) 
0

>  <i_epik_Tot_abs_Q>  (84) 
0

>  <s_epik_Chemistry_Notes>  (84) 
This compound has an ester and may undergo hydrolysis at high or low pH. This compound has an imine and may undergo hydrolysis.

>  <s_lp_Force_Field>  (84) 
OPLS3e

>  <r_lp_Energy>  (84) 
27.0343

>  <b_lp_Chiralities_Consistent>  (84) 
1

>  <s_lp_Variant>  (84) 
28:0-1

>  <s_i_glide_gridfile>  (84) 
pfpi4k_grid

>  <i_i_glide_lignum>  (84) 
39

>  <i_i_glide_rotatable_bonds>  (84) 
5

>  <r_i_docking_score>  (84) 
-2.62242

>  <r_i_glide_ligand_efficiency>  (84) 
-0.163901

>  <r_i_glide_ligand_efficiency_sa>  (84) 
-0.413005

>  <r_i_glide_ligand_efficiency_ln>  (84) 
-0.695125

>  <r_i_glide_gscore>  (84) 
-2.62242

>  <r_i_glide_lipo>  (84) 
-0.251266

>  <r_i_glide_hbond>  (84) 
-0.0689843

>  <r_i_glide_metal>  (84) 
-0

>  <r_i_glide_rewards>  (84) 
-1.92101

>  <r_i_glide_evdw>  (84) 
-16.3324

>  <r_i_glide_ecoul>  (84) 
-3.27181

>  <r_i_glide_erotb>  (84) 
1.05818

>  <r_i_glide_esite>  (84) 
-0.131948

>  <r_i_glide_emodel>  (84) 
-20.9261

>  <r_i_glide_energy>  (84) 
-19.6042

>  <r_i_glide_einternal>  (84) 
3.53933

>  <r_i_glide_intrahb_reward>  (84) 
-0

>  <i_i_glide_confnum>  (84) 
2

>  <i_i_glide_posenum>  (84) 
6

>  <r_i_glide_eff_state_penalty>  (84) 
0

>  <ligand_id>  (84) 
28

>  <original_smiles>  (84) 
COC(=O)C(C)=C(C=N)Cc1ccncc1

>  <smiles>  (84) 
[H]N=C([H])C(=C(C(=O)OC([H])([H])[H])C([H])([H])[H])C([H])([H])c1c([H])c([H])nc([H])c1[H]

$$$$
28:1:0
     RDKit          3D

 30 30  0  0  1  0  0  0  0  0999 V2000
    3.3165    0.4820   -5.0920 C   0  0  0  0  0  0  0  0  0  0  0  0
    3.0944   -0.7134   -4.3809 O   0  0  0  0  0  0  0  0  0  0  0  0
    3.7206   -0.9331   -3.2217 C   0  0  0  0  0  0  0  0  0  0  0  0
    4.5983   -0.1855   -2.8141 O   0  0  0  0  0  0  0  0  0  0  0  0
    3.2381   -2.1522   -2.4939 C   0  0  0  0  0  0  0  0  0  0  0  0
    2.1289   -2.9543   -3.2181 C   0  0  0  0  0  0  0  0  0  0  0  0
    3.7482   -2.5325   -1.2739 C   0  0  0  0  0  0  0  0  0  0  0  0
    3.2172   -3.7611   -0.6058 C   0  0  0  0  0  0  0  0  0  0  0  0
    3.6040   -4.2085    0.5124 N   0  0  0  0  0  0  0  0  0  0  0  0
    4.8529   -1.8141   -0.4370 C   0  0  0  0  0  0  0  0  0  0  0  0
    6.1740   -2.5672   -0.3708 C   0  0  0  0  0  0  0  0  0  0  0  0
    6.5870   -3.1604    0.8318 C   0  0  0  0  0  0  0  0  0  0  0  0
    7.8022   -3.8654    0.8681 C   0  0  0  0  0  0  0  0  0  0  0  0
    8.6239   -3.9791   -0.1989 N   0  0  0  0  0  0  0  0  0  0  0  0
    8.2254   -3.3976   -1.3544 C   0  0  0  0  0  0  0  0  0  0  0  0
    7.0136   -2.6860   -1.4921 C   0  0  0  0  0  0  0  0  0  0  0  0
    2.7154    0.4623   -6.0014 H   0  0  0  0  0  0  0  0  0  0  0  0
    4.3694    0.5901   -5.3560 H   0  0  0  0  0  0  0  0  0  0  0  0
    3.0244    1.3446   -4.4904 H   0  0  0  0  0  0  0  0  0  0  0  0
    1.6783   -2.5234   -4.1109 H   0  0  0  0  0  0  0  0  0  0  0  0
    1.2813   -3.1055   -2.5509 H   0  0  0  0  0  0  0  0  0  0  0  0
    2.5112   -3.9228   -3.5322 H   0  0  0  0  0  0  0  0  0  0  0  0
    2.4486   -4.3179   -1.1347 H   0  0  0  0  0  0  0  0  0  0  0  0
    3.1805   -5.0749    0.8006 H   0  0  0  0  0  0  0  0  0  0  0  0
    5.1193   -0.7968   -0.7261 H   0  0  0  0  0  0  0  0  0  0  0  0
    4.4609   -1.6822    0.5754 H   0  0  0  0  0  0  0  0  0  0  0  0
    5.9628   -3.1003    1.7131 H   0  0  0  0  0  0  0  0  0  0  0  0
    8.1264   -4.3533    1.7775 H   0  0  0  0  0  0  0  0  0  0  0  0
    8.8957   -3.5282   -2.1914 H   0  0  0  0  0  0  0  0  0  0  0  0
    6.7421   -2.2676   -2.4517 H   0  0  0  0  0  0  0  0  0  0  0  0
  1  2  1  0
  1 17  1  0
  1 18  1  0
  1 19  1  0
  2  3  1  0
  3  4  2  0
  3  5  1  0
  5  6  1  0
  5  7  2  3
  6 20  1  0
  6 21  1  0
  6 22  1  0
  7  8  1  0
  7 10  1  0
  8  9  2  3
  8 23  1  0
  9 24  1  0
 10 11  1  0
 10 25  1  0
 10 26  1  0
 11 16  2  0
 11 12  1  0
 12 13  2  0
 12 27  1  0
 13 14  1  0
 13 28  1  0
 14 15  2  0
 15 16  1  0
 15 29  1  0
 16 30  1  0
M  END
>  <i_m_ct_stereo_status>  (85) 
1

>  <s_m_source_file>  (85) 
/var/tmp/pbs.5076255.sched01/tmpsofmo5yl/0au1p7r3z.sdf

>  <i_m_source_file_index>  (85) 
40

>  <i_lp_mmshare_version>  (85) 
48012

>  <i_f3d_flags>  (85) 
0

>  <s_epik_input>  (85) 
W0NIM11PQyg9TykvQyhbQ0gzXSk9QyhcW0NIXT1OXFtIXSlbQ0gyXWMxW2NIXVtjSF1uW2NIXVtjSF0x

>  <s_epik_cmdline>  (85) 
J2VwaWtfcHl0aG9uJywgJy1waHQnLCAnMi4wJywgJy1waCcsICc3LjAnLCAnLXRuJywgJzgnLCAnLW1hJywgJzIwMCcsICctaW1hZScsICc8aW5maWxlLm1hZT4nLCAnLW9tYWUnLCAnPG91dGZpbGUubWFlPic=

>  <r_epik_Ionization_Penalty>  (85) 
0.00102507

>  <r_epik_Ionization_Penalty_Charging>  (85) 
0

>  <r_epik_Ionization_Penalty_Neutral>  (85) 
0.00102507

>  <r_epik_State_Penalty>  (85) 
0.000669326

>  <r_epik_Charging_Adjusted_Penalty>  (85) 
0.000669326

>  <i_epik_Tot_Q>  (85) 
0

>  <i_epik_Tot_abs_Q>  (85) 
0

>  <s_epik_Chemistry_Notes>  (85) 
This compound has an ester and may undergo hydrolysis at high or low pH. This compound has an imine and may undergo hydrolysis.

>  <s_lp_Force_Field>  (85) 
OPLS3e

>  <r_lp_Energy>  (85) 
25.5888

>  <b_lp_Chiralities_Consistent>  (85) 
1

>  <s_lp_Variant>  (85) 
28:0-2

>  <s_i_glide_gridfile>  (85) 
pfpi4k_grid

>  <i_i_glide_lignum>  (85) 
40

>  <i_i_glide_rotatable_bonds>  (85) 
5

>  <r_i_docking_score>  (85) 
-3.30558

>  <r_i_glide_ligand_efficiency>  (85) 
-0.206599

>  <r_i_glide_ligand_efficiency_sa>  (85) 
-0.520597

>  <r_i_glide_ligand_efficiency_ln>  (85) 
-0.876211

>  <r_i_glide_gscore>  (85) 
-3.30558

>  <r_i_glide_lipo>  (85) 
-0.522813

>  <r_i_glide_hbond>  (85) 
0

>  <r_i_glide_metal>  (85) 
-0

>  <r_i_glide_rewards>  (85) 
-2.08237

>  <r_i_glide_evdw>  (85) 
-24.7508

>  <r_i_glide_ecoul>  (85) 
-3.43768

>  <r_i_glide_erotb>  (85) 
1.05818

>  <r_i_glide_esite>  (85) 
-0.0053881

>  <r_i_glide_emodel>  (85) 
-32.5521

>  <r_i_glide_energy>  (85) 
-28.1884

>  <r_i_glide_einternal>  (85) 
3.09

>  <r_i_glide_intrahb_reward>  (85) 
-0

>  <i_i_glide_confnum>  (85) 
5

>  <i_i_glide_posenum>  (85) 
1

>  <r_i_glide_eff_state_penalty>  (85) 
0

>  <ligand_id>  (85) 
28

>  <original_smiles>  (85) 
COC(=O)C(C)=C(C=N)Cc1ccncc1

>  <smiles>  (85) 
[H]N=C([H])C(=C(C(=O)OC([H])([H])[H])C([H])([H])[H])C([H])([H])c1c([H])c([H])nc([H])c1[H]

$$$$
28:1:1
     RDKit          3D

 30 30  0  0  1  0  0  0  0  0999 V2000
   -4.0264    3.4936    2.4183 C   0  0  0  0  0  0  0  0  0  0  0  0
   -3.1774    2.9407    3.4021 O   0  0  0  0  0  0  0  0  0  0  0  0
   -1.9665    3.4594    3.6255 C   0  0  0  0  0  0  0  0  0  0  0  0
   -1.6389    4.5957    3.2850 O   0  0  0  0  0  0  0  0  0  0  0  0
   -1.0734    2.4938    4.3064 C   0  0  0  0  0  0  0  0  0  0  0  0
    0.1573    2.1183    3.4770 C   0  0  0  0  0  0  0  0  0  0  0  0
   -1.3568    1.9958    5.5448 C   0  0  0  0  0  0  0  0  0  0  0  0
   -0.4472    1.0017    6.1830 C   0  0  0  0  0  0  0  0  0  0  0  0
   -0.6410    0.4839    7.3215 N   0  0  0  0  0  0  0  0  0  0  0  0
   -2.5738    2.3936    6.4025 C   0  0  0  0  0  0  0  0  0  0  0  0
   -2.2506    3.3166    7.5585 C   0  0  0  0  0  0  0  0  0  0  0  0
   -2.9992    3.2515    8.7498 C   0  0  0  0  0  0  0  0  0  0  0  0
   -2.6562    4.1149    9.8071 C   0  0  0  0  0  0  0  0  0  0  0  0
   -1.6573    5.0216    9.7280 N   0  0  0  0  0  0  0  0  0  0  0  0
   -0.9504    5.0833    8.5833 C   0  0  0  0  0  0  0  0  0  0  0  0
   -1.2097    4.2602    7.4718 C   0  0  0  0  0  0  0  0  0  0  0  0
   -4.9810    2.9700    2.4390 H   0  0  0  0  0  0  0  0  0  0  0  0
   -3.5910    3.3500    1.4289 H   0  0  0  0  0  0  0  0  0  0  0  0
   -4.2020    4.5567    2.5855 H   0  0  0  0  0  0  0  0  0  0  0  0
    0.1184    2.5452    2.4722 H   0  0  0  0  0  0  0  0  0  0  0  0
    0.2333    1.0346    3.3527 H   0  0  0  0  0  0  0  0  0  0  0  0
    1.0709    2.4735    3.9523 H   0  0  0  0  0  0  0  0  0  0  0  0
    0.4477    0.7255    5.6166 H   0  0  0  0  0  0  0  0  0  0  0  0
    0.1209   -0.1179    7.6051 H   0  0  0  0  0  0  0  0  0  0  0  0
   -3.3619    2.8875    5.8403 H   0  0  0  0  0  0  0  0  0  0  0  0
   -3.0255    1.4904    6.8074 H   0  0  0  0  0  0  0  0  0  0  0  0
   -3.8100    2.5484    8.8652 H   0  0  0  0  0  0  0  0  0  0  0  0
   -3.2022    4.0820   10.7385 H   0  0  0  0  0  0  0  0  0  0  0  0
   -0.1515    5.8105    8.5541 H   0  0  0  0  0  0  0  0  0  0  0  0
   -0.6054    4.3689    6.5824 H   0  0  0  0  0  0  0  0  0  0  0  0
  1  2  1  0
  1 17  1  0
  1 18  1  0
  1 19  1  0
  2  3  1  0
  3  4  2  0
  3  5  1  0
  5  6  1  0
  5  7  2  3
  6 20  1  0
  6 21  1  0
  6 22  1  0
  7  8  1  0
  7 10  1  0
  8  9  2  3
  8 23  1  0
  9 24  1  0
 10 11  1  0
 10 25  1  0
 10 26  1  0
 11 16  2  0
 11 12  1  0
 12 13  2  0
 12 27  1  0
 13 14  1  0
 13 28  1  0
 14 15  2  0
 15 16  1  0
 15 29  1  0
 16 30  1  0
M  END
>  <i_m_ct_stereo_status>  (86) 
1

>  <s_m_source_file>  (86) 
/var/tmp/pbs.5076255.sched01/tmpsofmo5yl/0au1p7r3z.sdf

>  <i_m_source_file_index>  (86) 
40

>  <i_lp_mmshare_version>  (86) 
48012

>  <i_f3d_flags>  (86) 
0

>  <s_epik_input>  (86) 
W0NIM11PQyg9TykvQyhbQ0gzXSk9QyhcW0NIXT1OXFtIXSlbQ0gyXWMxW2NIXVtjSF1uW2NIXVtjSF0x

>  <s_epik_cmdline>  (86) 
J2VwaWtfcHl0aG9uJywgJy1waHQnLCAnMi4wJywgJy1waCcsICc3LjAnLCAnLXRuJywgJzgnLCAnLW1hJywgJzIwMCcsICctaW1hZScsICc8aW5maWxlLm1hZT4nLCAnLW9tYWUnLCAnPG91dGZpbGUubWFlPic=

>  <r_epik_Ionization_Penalty>  (86) 
0.00102507

>  <r_epik_Ionization_Penalty_Charging>  (86) 
0

>  <r_epik_Ionization_Penalty_Neutral>  (86) 
0.00102507

>  <r_epik_State_Penalty>  (86) 
0.000669326

>  <r_epik_Charging_Adjusted_Penalty>  (86) 
0.000669326

>  <i_epik_Tot_Q>  (86) 
0

>  <i_epik_Tot_abs_Q>  (86) 
0

>  <s_epik_Chemistry_Notes>  (86) 
This compound has an ester and may undergo hydrolysis at high or low pH. This compound has an imine and may undergo hydrolysis.

>  <s_lp_Force_Field>  (86) 
OPLS3e

>  <r_lp_Energy>  (86) 
25.5888

>  <b_lp_Chiralities_Consistent>  (86) 
1

>  <s_lp_Variant>  (86) 
28:0-2

>  <s_i_glide_gridfile>  (86) 
pfpi4k_grid

>  <i_i_glide_lignum>  (86) 
40

>  <i_i_glide_rotatable_bonds>  (86) 
5

>  <r_i_docking_score>  (86) 
-2.99148

>  <r_i_glide_ligand_efficiency>  (86) 
-0.186967

>  <r_i_glide_ligand_efficiency_sa>  (86) 
-0.471128

>  <r_i_glide_ligand_efficiency_ln>  (86) 
-0.792951

>  <r_i_glide_gscore>  (86) 
-2.99148

>  <r_i_glide_lipo>  (86) 
-0.483309

>  <r_i_glide_hbond>  (86) 
-0.199291

>  <r_i_glide_metal>  (86) 
-0

>  <r_i_glide_rewards>  (86) 
-1.92101

>  <r_i_glide_evdw>  (86) 
-18.3446

>  <r_i_glide_ecoul>  (86) 
-3.00478

>  <r_i_glide_erotb>  (86) 
1.05818

>  <r_i_glide_esite>  (86) 
-0.0780998

>  <r_i_glide_emodel>  (86) 
-23.3985

>  <r_i_glide_energy>  (86) 
-21.3494

>  <r_i_glide_einternal>  (86) 
6.95027

>  <r_i_glide_intrahb_reward>  (86) 
-0

>  <i_i_glide_confnum>  (86) 
2

>  <i_i_glide_posenum>  (86) 
24

>  <r_i_glide_eff_state_penalty>  (86) 
0

>  <ligand_id>  (86) 
28

>  <original_smiles>  (86) 
COC(=O)C(C)=C(C=N)Cc1ccncc1

>  <smiles>  (86) 
[H]N=C([H])C(=C(C(=O)OC([H])([H])[H])C([H])([H])[H])C([H])([H])c1c([H])c([H])nc([H])c1[H]

$$$$
28:1:2
     RDKit          3D

 30 30  0  0  1  0  0  0  0  0999 V2000
    1.4726    6.0915    3.3388 C   0  0  0  0  0  0  0  0  0  0  0  0
    1.2742    4.7425    3.7493 O   0  0  0  0  0  0  0  0  0  0  0  0
    0.0344    4.2903    3.9781 C   0  0  0  0  0  0  0  0  0  0  0  0
   -0.9478    5.0191    3.9494 O   0  0  0  0  0  0  0  0  0  0  0  0
   -0.0153    2.8060    4.1909 C   0  0  0  0  0  0  0  0  0  0  0  0
    1.0579    2.0131    3.4432 C   0  0  0  0  0  0  0  0  0  0  0  0
   -0.9740    2.2213    4.9887 C   0  0  0  0  0  0  0  0  0  0  0  0
   -0.9939    0.7295    5.1595 C   0  0  0  0  0  0  0  0  0  0  0  0
   -1.7847    0.0867    5.8941 N   0  0  0  0  0  0  0  0  0  0  0  0
   -2.0689    2.9541    5.7923 C   0  0  0  0  0  0  0  0  0  0  0  0
   -1.8761    2.9454    7.2959 C   0  0  0  0  0  0  0  0  0  0  0  0
   -2.9901    2.9410    8.1589 C   0  0  0  0  0  0  0  0  0  0  0  0
   -2.7675    2.9406    9.5523 C   0  0  0  0  0  0  0  0  0  0  0  0
   -1.5353    2.9613   10.0989 N   0  0  0  0  0  0  0  0  0  0  0  0
   -0.4725    2.9682    9.2713 C   0  0  0  0  0  0  0  0  0  0  0  0
   -0.5858    2.9725    7.8691 C   0  0  0  0  0  0  0  0  0  0  0  0
    2.5084    6.2563    3.0287 H   0  0  0  0  0  0  0  0  0  0  0  0
    1.2350    6.7650    4.1587 H   0  0  0  0  0  0  0  0  0  0  0  0
    0.8205    6.3172    2.4971 H   0  0  0  0  0  0  0  0  0  0  0  0
    1.6434    2.5803    2.7197 H   0  0  0  0  0  0  0  0  0  0  0  0
    0.6107    1.2027    2.8640 H   0  0  0  0  0  0  0  0  0  0  0  0
    1.7615    1.5666    4.1486 H   0  0  0  0  0  0  0  0  0  0  0  0
   -0.2183    0.1752    4.6222 H   0  0  0  0  0  0  0  0  0  0  0  0
   -1.5905   -0.9008    5.8687 H   0  0  0  0  0  0  0  0  0  0  0  0
   -2.2494    3.9913    5.5363 H   0  0  0  0  0  0  0  0  0  0  0  0
   -3.0121    2.4625    5.5652 H   0  0  0  0  0  0  0  0  0  0  0  0
   -3.9982    2.9381    7.7693 H   0  0  0  0  0  0  0  0  0  0  0  0
   -3.6005    2.9392   10.2424 H   0  0  0  0  0  0  0  0  0  0  0  0
    0.4981    2.9820    9.7435 H   0  0  0  0  0  0  0  0  0  0  0  0
    0.3059    2.9996    7.2625 H   0  0  0  0  0  0  0  0  0  0  0  0
  1  2  1  0
  1 17  1  0
  1 18  1  0
  1 19  1  0
  2  3  1  0
  3  4  2  0
  3  5  1  0
  5  6  1  0
  5  7  2  3
  6 20  1  0
  6 21  1  0
  6 22  1  0
  7  8  1  0
  7 10  1  0
  8  9  2  3
  8 23  1  0
  9 24  1  0
 10 11  1  0
 10 25  1  0
 10 26  1  0
 11 16  2  0
 11 12  1  0
 12 13  2  0
 12 27  1  0
 13 14  1  0
 13 28  1  0
 14 15  2  0
 15 16  1  0
 15 29  1  0
 16 30  1  0
M  END
>  <i_m_ct_stereo_status>  (87) 
1

>  <s_m_source_file>  (87) 
/var/tmp/pbs.5076255.sched01/tmpsofmo5yl/0au1p7r3z.sdf

>  <i_m_source_file_index>  (87) 
40

>  <i_lp_mmshare_version>  (87) 
48012

>  <i_f3d_flags>  (87) 
0

>  <s_epik_input>  (87) 
W0NIM11PQyg9TykvQyhbQ0gzXSk9QyhcW0NIXT1OXFtIXSlbQ0gyXWMxW2NIXVtjSF1uW2NIXVtjSF0x

>  <s_epik_cmdline>  (87) 
J2VwaWtfcHl0aG9uJywgJy1waHQnLCAnMi4wJywgJy1waCcsICc3LjAnLCAnLXRuJywgJzgnLCAnLW1hJywgJzIwMCcsICctaW1hZScsICc8aW5maWxlLm1hZT4nLCAnLW9tYWUnLCAnPG91dGZpbGUubWFlPic=

>  <r_epik_Ionization_Penalty>  (87) 
0.00102507

>  <r_epik_Ionization_Penalty_Charging>  (87) 
0

>  <r_epik_Ionization_Penalty_Neutral>  (87) 
0.00102507

>  <r_epik_State_Penalty>  (87) 
0.000669326

>  <r_epik_Charging_Adjusted_Penalty>  (87) 
0.000669326

>  <i_epik_Tot_Q>  (87) 
0

>  <i_epik_Tot_abs_Q>  (87) 
0

>  <s_epik_Chemistry_Notes>  (87) 
This compound has an ester and may undergo hydrolysis at high or low pH. This compound has an imine and may undergo hydrolysis.

>  <s_lp_Force_Field>  (87) 
OPLS3e

>  <r_lp_Energy>  (87) 
25.5888

>  <b_lp_Chiralities_Consistent>  (87) 
1

>  <s_lp_Variant>  (87) 
28:0-2

>  <s_i_glide_gridfile>  (87) 
pfpi4k_grid

>  <i_i_glide_lignum>  (87) 
40

>  <i_i_glide_rotatable_bonds>  (87) 
5

>  <r_i_docking_score>  (87) 
-2.82949

>  <r_i_glide_ligand_efficiency>  (87) 
-0.176843

>  <r_i_glide_ligand_efficiency_sa>  (87) 
-0.445617

>  <r_i_glide_ligand_efficiency_ln>  (87) 
-0.750013

>  <r_i_glide_gscore>  (87) 
-2.82949

>  <r_i_glide_lipo>  (87) 
-0.195792

>  <r_i_glide_hbond>  (87) 
-0.213552

>  <r_i_glide_metal>  (87) 
-0

>  <r_i_glide_rewards>  (87) 
-1.92101

>  <r_i_glide_evdw>  (87) 
-16.6387

>  <r_i_glide_ecoul>  (87) 
-4.11165

>  <r_i_glide_erotb>  (87) 
1.05818

>  <r_i_glide_esite>  (87) 
-0.108633

>  <r_i_glide_emodel>  (87) 
-24.0597

>  <r_i_glide_energy>  (87) 
-20.7503

>  <r_i_glide_einternal>  (87) 
3.81755

>  <r_i_glide_intrahb_reward>  (87) 
-0

>  <i_i_glide_confnum>  (87) 
5

>  <i_i_glide_posenum>  (87) 
13

>  <r_i_glide_eff_state_penalty>  (87) 
0

>  <ligand_id>  (87) 
28

>  <original_smiles>  (87) 
COC(=O)C(C)=C(C=N)Cc1ccncc1

>  <smiles>  (87) 
[H]N=C([H])C(=C(C(=O)OC([H])([H])[H])C([H])([H])[H])C([H])([H])c1c([H])c([H])nc([H])c1[H]

$$$$
28:2:0
     RDKit          3D

 30 30  0  0  1  0  0  0  0  0999 V2000
   -0.9023   -8.8650    3.2564 C   0  0  0  0  0  0  0  0  0  0  0  0
    0.4004   -8.7792    2.7105 O   0  0  0  0  0  0  0  0  0  0  0  0
    0.8232   -7.7164    2.0342 C   0  0  0  0  0  0  0  0  0  0  0  0
    0.1048   -6.7102    1.9068 O   0  0  0  0  0  0  0  0  0  0  0  0
    2.2223   -7.9115    1.4563 C   0  0  0  0  0  0  0  0  0  0  0  0
    2.6717   -9.3913    1.3510 C   0  0  0  0  0  0  0  0  0  0  0  0
    3.0104   -6.8812    0.9924 C   0  0  0  0  0  0  0  0  0  0  0  0
    2.6467   -5.4098    0.9757 C   0  0  0  0  0  0  0  0  0  0  0  0
    3.3812   -4.4886    0.4929 N   0  0  0  0  0  0  0  0  0  0  0  0
    4.4163   -7.1615    0.4115 C   0  0  0  0  0  0  0  0  0  0  0  0
    5.5774   -7.0320    1.3925 C   0  0  0  0  0  0  0  0  0  0  0  0
    6.5332   -5.9815    1.2798 C   0  0  0  0  0  0  0  0  0  0  0  0
    7.5995   -5.9029    2.2010 C   0  0  0  0  0  0  0  0  0  0  0  0
    7.7774   -6.7925    3.1928 N   0  0  0  0  0  0  0  0  0  0  0  0
    6.8642   -7.8022    3.2966 C   0  0  0  0  0  0  0  0  0  0  0  0
    5.7853   -7.9472    2.4459 C   0  0  0  0  0  0  0  0  0  0  0  0
   -1.0270   -9.8576    3.6866 H   0  0  0  0  0  0  0  0  0  0  0  0
   -1.6592   -8.7206    2.4928 H   0  0  0  0  0  0  0  0  0  0  0  0
   -1.0225   -8.1153    4.0296 H   0  0  0  0  0  0  0  0  0  0  0  0
    2.3176  -10.0684    2.1229 H   0  0  0  0  0  0  0  0  0  0  0  0
    3.7529   -9.5488    1.3675 H   0  0  0  0  0  0  0  0  0  0  0  0
    2.3346   -9.8119    0.4074 H   0  0  0  0  0  0  0  0  0  0  0  0
    1.6866   -5.1060    1.4117 H   0  0  0  0  0  0  0  0  0  0  0  0
    4.2564   -4.7887    0.0747 H   0  0  0  0  0  0  0  0  0  0  0  0
    4.4549   -8.1343   -0.0731 H   0  0  0  0  0  0  0  0  0  0  0  0
    4.6123   -6.5208   -0.4481 H   0  0  0  0  0  0  0  0  0  0  0  0
    6.4641   -5.2210    0.5038 H   0  0  0  0  0  0  0  0  0  0  0  0
    8.3534   -5.1132    2.1582 H   0  0  0  0  0  0  0  0  0  0  0  0
    7.0243   -8.5188    4.0989 H   0  0  0  0  0  0  0  0  0  0  0  0
    5.1131   -8.7909    2.6412 H   0  0  0  0  0  0  0  0  0  0  0  0
  1  2  1  0
  1 17  1  0
  1 18  1  0
  1 19  1  0
  2  3  1  0
  3  4  2  0
  3  5  1  0
  5  6  1  0
  5  7  2  3
  6 20  1  0
  6 21  1  0
  6 22  1  0
  7  8  1  0
  7 10  1  0
  8  9  2  3
  8 23  1  0
  9 24  1  0
 10 11  1  0
 10 25  1  0
 10 26  1  0
 11 16  2  0
 11 12  1  0
 12 13  2  0
 12 27  1  0
 13 14  1  0
 13 28  1  0
 14 15  2  0
 15 16  1  0
 15 29  1  0
 16 30  1  0
M  END
>  <i_m_ct_stereo_status>  (88) 
1

>  <s_m_source_file>  (88) 
/var/tmp/pbs.5076255.sched01/tmpsofmo5yl/0au1p7r3z.sdf

>  <i_m_source_file_index>  (88) 
41

>  <i_lp_mmshare_version>  (88) 
48012

>  <i_f3d_flags>  (88) 
0

>  <s_epik_input>  (88) 
W0NIM11PQyg9TykvQyhbQ0gzXSk9QyhcW0NIXT1OXFtIXSlbQ0gyXWMxW2NIXVtjSF1uW2NIXVtjSF0x

>  <s_epik_cmdline>  (88) 
J2VwaWtfcHl0aG9uJywgJy1waHQnLCAnMi4wJywgJy1waCcsICc3LjAnLCAnLXRuJywgJzgnLCAnLW1hJywgJzIwMCcsICctaW1hZScsICc8aW5maWxlLm1hZT4nLCAnLW9tYWUnLCAnPG91dGZpbGUubWFlPic=

>  <r_epik_Ionization_Penalty>  (88) 
0.00102507

>  <r_epik_Ionization_Penalty_Charging>  (88) 
0

>  <r_epik_Ionization_Penalty_Neutral>  (88) 
0.00102507

>  <r_epik_State_Penalty>  (88) 
0.000669326

>  <r_epik_Charging_Adjusted_Penalty>  (88) 
0.000669326

>  <i_epik_Tot_Q>  (88) 
0

>  <i_epik_Tot_abs_Q>  (88) 
0

>  <s_epik_Chemistry_Notes>  (88) 
This compound has an ester and may undergo hydrolysis at high or low pH. This compound has an imine and may undergo hydrolysis.

>  <s_lp_Force_Field>  (88) 
OPLS3e

>  <r_lp_Energy>  (88) 
27.7104

>  <b_lp_Chiralities_Consistent>  (88) 
1

>  <s_lp_Variant>  (88) 
28:0-3

>  <s_i_glide_gridfile>  (88) 
pfpi4k_grid

>  <i_i_glide_lignum>  (88) 
41

>  <i_i_glide_rotatable_bonds>  (88) 
5

>  <r_i_docking_score>  (88) 
-2.58775

>  <r_i_glide_ligand_efficiency>  (88) 
-0.161734

>  <r_i_glide_ligand_efficiency_sa>  (88) 
-0.407545

>  <r_i_glide_ligand_efficiency_ln>  (88) 
-0.685935

>  <r_i_glide_gscore>  (88) 
-2.58775

>  <r_i_glide_lipo>  (88) 
-0.385004

>  <r_i_glide_hbond>  (88) 
-0.0997907

>  <r_i_glide_metal>  (88) 
-0

>  <r_i_glide_rewards>  (88) 
-1.92101

>  <r_i_glide_evdw>  (88) 
-19.3098

>  <r_i_glide_ecoul>  (88) 
-1.32421

>  <r_i_glide_erotb>  (88) 
1.05818

>  <r_i_glide_esite>  (88) 
-0.0759995

>  <r_i_glide_emodel>  (88) 
-21.8111

>  <r_i_glide_energy>  (88) 
-20.6341

>  <r_i_glide_einternal>  (88) 
3.12295

>  <r_i_glide_intrahb_reward>  (88) 
-0

>  <i_i_glide_confnum>  (88) 
5

>  <i_i_glide_posenum>  (88) 
14

>  <r_i_glide_eff_state_penalty>  (88) 
0

>  <ligand_id>  (88) 
28

>  <original_smiles>  (88) 
COC(=O)C(C)=C(C=N)Cc1ccncc1

>  <smiles>  (88) 
[H]N=C([H])C(=C(C(=O)OC([H])([H])[H])C([H])([H])[H])C([H])([H])c1c([H])c([H])nc([H])c1[H]

$$$$
28:2:1
     RDKit          3D

 30 30  0  0  1  0  0  0  0  0999 V2000
   -0.4310   -9.2207    3.7372 C   0  0  0  0  0  0  0  0  0  0  0  0
    0.7449   -9.1093    2.9667 O   0  0  0  0  0  0  0  0  0  0  0  0
    1.1036   -7.9348    2.4369 C   0  0  0  0  0  0  0  0  0  0  0  0
    0.3964   -6.9335    2.5750 O   0  0  0  0  0  0  0  0  0  0  0  0
    2.3958   -8.0178    1.6598 C   0  0  0  0  0  0  0  0  0  0  0  0
    2.9158   -9.4536    1.4419 C   0  0  0  0  0  0  0  0  0  0  0  0
    3.0635   -6.9320    1.1316 C   0  0  0  0  0  0  0  0  0  0  0  0
    2.5880   -5.5090    1.2619 C   0  0  0  0  0  0  0  0  0  0  0  0
    3.1233   -4.5111    0.7080 N   0  0  0  0  0  0  0  0  0  0  0  0
    4.3557   -7.0933    0.2820 C   0  0  0  0  0  0  0  0  0  0  0  0
    5.6367   -6.5303    0.8865 C   0  0  0  0  0  0  0  0  0  0  0  0
    6.4742   -7.3330    1.6886 C   0  0  0  0  0  0  0  0  0  0  0  0
    7.6395   -6.7635    2.2399 C   0  0  0  0  0  0  0  0  0  0  0  0
    7.9945   -5.4721    2.0565 N   0  0  0  0  0  0  0  0  0  0  0  0
    7.2036   -4.7147    1.2700 C   0  0  0  0  0  0  0  0  0  0  0  0
    6.0532   -5.2040    0.6304 C   0  0  0  0  0  0  0  0  0  0  0  0
   -0.5344  -10.2544    4.0682 H   0  0  0  0  0  0  0  0  0  0  0  0
   -1.3186   -8.9475    3.1579 H   0  0  0  0  0  0  0  0  0  0  0  0
   -0.3806   -8.5773    4.6207 H   0  0  0  0  0  0  0  0  0  0  0  0
    2.6214  -10.2016    2.1798 H   0  0  0  0  0  0  0  0  0  0  0  0
    4.0015   -9.5273    1.4422 H   0  0  0  0  0  0  0  0  0  0  0  0
    2.5670   -9.8296    0.4822 H   0  0  0  0  0  0  0  0  0  0  0  0
    1.7109   -5.3120    1.8794 H   0  0  0  0  0  0  0  0  0  0  0  0
    3.9564   -4.7511    0.1767 H   0  0  0  0  0  0  0  0  0  0  0  0
    4.5608   -8.1237    0.0009 H   0  0  0  0  0  0  0  0  0  0  0  0
    4.2071   -6.6308   -0.6900 H   0  0  0  0  0  0  0  0  0  0  0  0
    6.2345   -8.3701    1.8836 H   0  0  0  0  0  0  0  0  0  0  0  0
    8.3100   -7.3519    2.8534 H   0  0  0  0  0  0  0  0  0  0  0  0
    7.4891   -3.6779    1.1491 H   0  0  0  0  0  0  0  0  0  0  0  0
    5.5133   -4.5295   -0.0189 H   0  0  0  0  0  0  0  0  0  0  0  0
  1  2  1  0
  1 17  1  0
  1 18  1  0
  1 19  1  0
  2  3  1  0
  3  4  2  0
  3  5  1  0
  5  6  1  0
  5  7  2  3
  6 20  1  0
  6 21  1  0
  6 22  1  0
  7  8  1  0
  7 10  1  0
  8  9  2  3
  8 23  1  0
  9 24  1  0
 10 11  1  0
 10 25  1  0
 10 26  1  0
 11 16  2  0
 11 12  1  0
 12 13  2  0
 12 27  1  0
 13 14  1  0
 13 28  1  0
 14 15  2  0
 15 16  1  0
 15 29  1  0
 16 30  1  0
M  END
>  <i_m_ct_stereo_status>  (89) 
1

>  <s_m_source_file>  (89) 
/var/tmp/pbs.5076255.sched01/tmpsofmo5yl/0au1p7r3z.sdf

>  <i_m_source_file_index>  (89) 
41

>  <i_lp_mmshare_version>  (89) 
48012

>  <i_f3d_flags>  (89) 
0

>  <s_epik_input>  (89) 
W0NIM11PQyg9TykvQyhbQ0gzXSk9QyhcW0NIXT1OXFtIXSlbQ0gyXWMxW2NIXVtjSF1uW2NIXVtjSF0x

>  <s_epik_cmdline>  (89) 
J2VwaWtfcHl0aG9uJywgJy1waHQnLCAnMi4wJywgJy1waCcsICc3LjAnLCAnLXRuJywgJzgnLCAnLW1hJywgJzIwMCcsICctaW1hZScsICc8aW5maWxlLm1hZT4nLCAnLW9tYWUnLCAnPG91dGZpbGUubWFlPic=

>  <r_epik_Ionization_Penalty>  (89) 
0.00102507

>  <r_epik_Ionization_Penalty_Charging>  (89) 
0

>  <r_epik_Ionization_Penalty_Neutral>  (89) 
0.00102507

>  <r_epik_State_Penalty>  (89) 
0.000669326

>  <r_epik_Charging_Adjusted_Penalty>  (89) 
0.000669326

>  <i_epik_Tot_Q>  (89) 
0

>  <i_epik_Tot_abs_Q>  (89) 
0

>  <s_epik_Chemistry_Notes>  (89) 
This compound has an ester and may undergo hydrolysis at high or low pH. This compound has an imine and may undergo hydrolysis.

>  <s_lp_Force_Field>  (89) 
OPLS3e

>  <r_lp_Energy>  (89) 
27.7104

>  <b_lp_Chiralities_Consistent>  (89) 
1

>  <s_lp_Variant>  (89) 
28:0-3

>  <s_i_glide_gridfile>  (89) 
pfpi4k_grid

>  <i_i_glide_lignum>  (89) 
41

>  <i_i_glide_rotatable_bonds>  (89) 
5

>  <r_i_docking_score>  (89) 
-2.54659

>  <r_i_glide_ligand_efficiency>  (89) 
-0.159162

>  <r_i_glide_ligand_efficiency_sa>  (89) 
-0.401063

>  <r_i_glide_ligand_efficiency_ln>  (89) 
-0.675024

>  <r_i_glide_gscore>  (89) 
-2.54659

>  <r_i_glide_lipo>  (89) 
-0.566235

>  <r_i_glide_hbond>  (89) 
0

>  <r_i_glide_metal>  (89) 
-0

>  <r_i_glide_rewards>  (89) 
-1.92101

>  <r_i_glide_evdw>  (89) 
-19.0128

>  <r_i_glide_ecoul>  (89) 
-0.77871

>  <r_i_glide_erotb>  (89) 
1.05818

>  <r_i_glide_esite>  (89) 
-0.0500761

>  <r_i_glide_emodel>  (89) 
-20.9421

>  <r_i_glide_energy>  (89) 
-19.7915

>  <r_i_glide_einternal>  (89) 
3.2611

>  <r_i_glide_intrahb_reward>  (89) 
-0

>  <i_i_glide_confnum>  (89) 
2

>  <i_i_glide_posenum>  (89) 
18

>  <r_i_glide_eff_state_penalty>  (89) 
0

>  <ligand_id>  (89) 
28

>  <original_smiles>  (89) 
COC(=O)C(C)=C(C=N)Cc1ccncc1

>  <smiles>  (89) 
[H]N=C([H])C(=C(C(=O)OC([H])([H])[H])C([H])([H])[H])C([H])([H])c1c([H])c([H])nc([H])c1[H]

$$$$
28:2:2
     RDKit          3D

 30 30  0  0  1  0  0  0  0  0999 V2000
    0.2325   -3.5646    5.6962 C   0  0  0  0  0  0  0  0  0  0  0  0
   -0.3110   -2.3082    5.3887 O   0  0  0  0  0  0  0  0  0  0  0  0
    0.3057   -1.4978    4.4991 C   0  0  0  0  0  0  0  0  0  0  0  0
    1.3888   -1.8266    4.0108 O   0  0  0  0  0  0  0  0  0  0  0  0
   -0.4862   -0.2403    4.2184 C   0  0  0  0  0  0  0  0  0  0  0  0
   -1.8012   -0.1489    5.0225 C   0  0  0  0  0  0  0  0  0  0  0  0
   -0.0981    0.7872    3.3810 C   0  0  0  0  0  0  0  0  0  0  0  0
    1.1881    0.8059    2.5669 C   0  0  0  0  0  0  0  0  0  0  0  0
    1.5617    1.7523    1.8190 N   0  0  0  0  0  0  0  0  0  0  0  0
   -0.9463    2.0702    3.1812 C   0  0  0  0  0  0  0  0  0  0  0  0
   -0.6721    3.1781    4.1897 C   0  0  0  0  0  0  0  0  0  0  0  0
   -1.2488    3.1623    5.4826 C   0  0  0  0  0  0  0  0  0  0  0  0
   -0.9290    4.1811    6.3930 C   0  0  0  0  0  0  0  0  0  0  0  0
   -0.1673    5.2471    6.0791 N   0  0  0  0  0  0  0  0  0  0  0  0
    0.3526    5.2965    4.8329 C   0  0  0  0  0  0  0  0  0  0  0  0
    0.1333    4.2958    3.8657 C   0  0  0  0  0  0  0  0  0  0  0  0
   -0.4327   -4.0798    6.3913 H   0  0  0  0  0  0  0  0  0  0  0  0
    1.2166   -3.4522    6.1603 H   0  0  0  0  0  0  0  0  0  0  0  0
    0.3330   -4.1723    4.7922 H   0  0  0  0  0  0  0  0  0  0  0  0
   -2.3293   -1.0794    5.2383 H   0  0  0  0  0  0  0  0  0  0  0  0
   -2.5533    0.4266    4.4958 H   0  0  0  0  0  0  0  0  0  0  0  0
   -1.5975    0.2977    5.9931 H   0  0  0  0  0  0  0  0  0  0  0  0
    1.8549   -0.0498    2.6218 H   0  0  0  0  0  0  0  0  0  0  0  0
    0.9189    2.5480    1.7426 H   0  0  0  0  0  0  0  0  0  0  0  0
   -0.8061    2.4833    2.1815 H   0  0  0  0  0  0  0  0  0  0  0  0
   -2.0074    1.8680    3.1629 H   0  0  0  0  0  0  0  0  0  0  0  0
   -1.9350    2.3966    5.7922 H   0  0  0  0  0  0  0  0  0  0  0  0
   -1.3404    4.1539    7.3927 H   0  0  0  0  0  0  0  0  0  0  0  0
    0.9509    6.1695    4.6046 H   0  0  0  0  0  0  0  0  0  0  0  0
    0.5794    4.4002    2.8871 H   0  0  0  0  0  0  0  0  0  0  0  0
  1  2  1  0
  1 17  1  0
  1 18  1  0
  1 19  1  0
  2  3  1  0
  3  4  2  0
  3  5  1  0
  5  6  1  0
  5  7  2  3
  6 20  1  0
  6 21  1  0
  6 22  1  0
  7  8  1  0
  7 10  1  0
  8  9  2  3
  8 23  1  0
  9 24  1  0
 10 11  1  0
 10 25  1  0
 10 26  1  0
 11 16  2  0
 11 12  1  0
 12 13  2  0
 12 27  1  0
 13 14  1  0
 13 28  1  0
 14 15  2  0
 15 16  1  0
 15 29  1  0
 16 30  1  0
M  END
>  <i_m_ct_stereo_status>  (90) 
1

>  <s_m_source_file>  (90) 
/var/tmp/pbs.5076255.sched01/tmpsofmo5yl/0au1p7r3z.sdf

>  <i_m_source_file_index>  (90) 
41

>  <i_lp_mmshare_version>  (90) 
48012

>  <i_f3d_flags>  (90) 
0

>  <s_epik_input>  (90) 
W0NIM11PQyg9TykvQyhbQ0gzXSk9QyhcW0NIXT1OXFtIXSlbQ0gyXWMxW2NIXVtjSF1uW2NIXVtjSF0x

>  <s_epik_cmdline>  (90) 
J2VwaWtfcHl0aG9uJywgJy1waHQnLCAnMi4wJywgJy1waCcsICc3LjAnLCAnLXRuJywgJzgnLCAnLW1hJywgJzIwMCcsICctaW1hZScsICc8aW5maWxlLm1hZT4nLCAnLW9tYWUnLCAnPG91dGZpbGUubWFlPic=

>  <r_epik_Ionization_Penalty>  (90) 
0.00102507

>  <r_epik_Ionization_Penalty_Charging>  (90) 
0

>  <r_epik_Ionization_Penalty_Neutral>  (90) 
0.00102507

>  <r_epik_State_Penalty>  (90) 
0.000669326

>  <r_epik_Charging_Adjusted_Penalty>  (90) 
0.000669326

>  <i_epik_Tot_Q>  (90) 
0

>  <i_epik_Tot_abs_Q>  (90) 
0

>  <s_epik_Chemistry_Notes>  (90) 
This compound has an ester and may undergo hydrolysis at high or low pH. This compound has an imine and may undergo hydrolysis.

>  <s_lp_Force_Field>  (90) 
OPLS3e

>  <r_lp_Energy>  (90) 
27.7104

>  <b_lp_Chiralities_Consistent>  (90) 
1

>  <s_lp_Variant>  (90) 
28:0-3

>  <s_i_glide_gridfile>  (90) 
pfpi4k_grid

>  <i_i_glide_lignum>  (90) 
41

>  <i_i_glide_rotatable_bonds>  (90) 
5

>  <r_i_docking_score>  (90) 
-2.23315

>  <r_i_glide_ligand_efficiency>  (90) 
-0.139572

>  <r_i_glide_ligand_efficiency_sa>  (90) 
-0.351698

>  <r_i_glide_ligand_efficiency_ln>  (90) 
-0.59194

>  <r_i_glide_gscore>  (90) 
-2.23315

>  <r_i_glide_lipo>  (90) 
0

>  <r_i_glide_hbond>  (90) 
-0.0967329

>  <r_i_glide_metal>  (90) 
-0

>  <r_i_glide_rewards>  (90) 
-1.92101

>  <r_i_glide_evdw>  (90) 
-16.4249

>  <r_i_glide_ecoul>  (90) 
-2.77218

>  <r_i_glide_erotb>  (90) 
1.05818

>  <r_i_glide_esite>  (90) 
-0.0365088

>  <r_i_glide_emodel>  (90) 
-20.1905

>  <r_i_glide_energy>  (90) 
-19.197

>  <r_i_glide_einternal>  (90) 
3.22472

>  <r_i_glide_intrahb_reward>  (90) 
-0

>  <i_i_glide_confnum>  (90) 
6

>  <i_i_glide_posenum>  (90) 
5

>  <r_i_glide_eff_state_penalty>  (90) 
0

>  <ligand_id>  (90) 
28

>  <original_smiles>  (90) 
COC(=O)C(C)=C(C=N)Cc1ccncc1

>  <smiles>  (90) 
[H]N=C([H])C(=C(C(=O)OC([H])([H])[H])C([H])([H])[H])C([H])([H])c1c([H])c([H])nc([H])c1[H]

$$$$
28:3:0
     RDKit          3D

 30 30  0  0  1  0  0  0  0  0999 V2000
    8.2907   -6.8503    1.4537 C   0  0  0  0  0  0  0  0  0  0  0  0
    6.8984   -6.6679    1.3367 O   0  0  0  0  0  0  0  0  0  0  0  0
    6.4060   -5.5000    0.8995 C   0  0  0  0  0  0  0  0  0  0  0  0
    7.1371   -4.5464    0.6562 O   0  0  0  0  0  0  0  0  0  0  0  0
    4.8978   -5.5295    0.7541 C   0  0  0  0  0  0  0  0  0  0  0  0
    4.2575   -6.8899    1.1545 C   0  0  0  0  0  0  0  0  0  0  0  0
    4.1619   -4.4305    0.3319 C   0  0  0  0  0  0  0  0  0  0  0  0
    2.6641   -4.4206    0.2281 C   0  0  0  0  0  0  0  0  0  0  0  0
    1.8618   -5.3565    0.4847 N   0  0  0  0  0  0  0  0  0  0  0  0
    4.7102   -3.0301   -0.0667 C   0  0  0  0  0  0  0  0  0  0  0  0
    4.4366   -2.5615   -1.4802 C   0  0  0  0  0  0  0  0  0  0  0  0
    4.4353   -3.4519   -2.5724 C   0  0  0  0  0  0  0  0  0  0  0  0
    4.2056   -2.9382   -3.8635 C   0  0  0  0  0  0  0  0  0  0  0  0
    4.0078   -1.6295   -4.1214 N   0  0  0  0  0  0  0  0  0  0  0  0
    4.0264   -0.7756   -3.0734 C   0  0  0  0  0  0  0  0  0  0  0  0
    4.2443   -1.1927   -1.7439 C   0  0  0  0  0  0  0  0  0  0  0  0
    8.5025   -7.8753    1.7851 H   0  0  0  0  0  0  0  0  0  0  0  0
    8.6919   -6.1313    2.1767 H   0  0  0  0  0  0  0  0  0  0  0  0
    8.7602   -6.6743    0.4789 H   0  0  0  0  0  0  0  0  0  0  0  0
    4.8848   -7.7878    1.1323 H   0  0  0  0  0  0  0  0  0  0  0  0
    3.4651   -7.2087    0.4776 H   0  0  0  0  0  0  0  0  0  0  0  0
    3.8583   -6.8152    2.1705 H   0  0  0  0  0  0  0  0  0  0  0  0
    2.2258   -3.4790   -0.1024 H   0  0  0  0  0  0  0  0  0  0  0  0
    2.3398   -6.1796    0.7965 H   0  0  0  0  0  0  0  0  0  0  0  0
    4.2684   -2.3244    0.6491 H   0  0  0  0  0  0  0  0  0  0  0  0
    5.8015   -2.8760   -0.0192 H   0  0  0  0  0  0  0  0  0  0  0  0
    4.6213   -4.5072   -2.4425 H   0  0  0  0  0  0  0  0  0  0  0  0
    4.1792   -3.5996   -4.7179 H   0  0  0  0  0  0  0  0  0  0  0  0
    3.8686    0.2726   -3.2976 H   0  0  0  0  0  0  0  0  0  0  0  0
    4.2858   -0.4663   -0.9502 H   0  0  0  0  0  0  0  0  0  0  0  0
  1  2  1  0
  1 17  1  0
  1 18  1  0
  1 19  1  0
  2  3  1  0
  3  4  2  0
  3  5  1  0
  5  6  1  0
  5  7  2  3
  6 20  1  0
  6 21  1  0
  6 22  1  0
  7  8  1  0
  7 10  1  0
  8  9  2  3
  8 23  1  0
  9 24  1  0
 10 11  1  0
 10 25  1  0
 10 26  1  0
 11 16  2  0
 11 12  1  0
 12 13  2  0
 12 27  1  0
 13 14  1  0
 13 28  1  0
 14 15  2  0
 15 16  1  0
 15 29  1  0
 16 30  1  0
M  END
>  <i_m_ct_stereo_status>  (91) 
1

>  <s_m_source_file>  (91) 
/var/tmp/pbs.5076255.sched01/tmp5eg4wc32/41mqp692j8.sdf

>  <i_m_source_file_index>  (91) 
1

>  <i_lp_mmshare_version>  (91) 
48012

>  <i_f3d_flags>  (91) 
0

>  <s_epik_input>  (91) 
W0NIM11PQyg9TykvQyhbQ0gzXSk9QyhcW0NIXT1OXFtIXSlbQ0gyXWMxW2NIXVtjSF1uW2NIXVtjSF0x

>  <s_epik_cmdline>  (91) 
J2VwaWtfcHl0aG9uJywgJy1waHQnLCAnMi4wJywgJy1waCcsICc3LjAnLCAnLXRuJywgJzgnLCAnLW1hJywgJzIwMCcsICctaW1hZScsICc8aW5maWxlLm1hZT4nLCAnLW9tYWUnLCAnPG91dGZpbGUubWFlPic=

>  <r_epik_Ionization_Penalty>  (91) 
0.00102507

>  <r_epik_Ionization_Penalty_Charging>  (91) 
0

>  <r_epik_Ionization_Penalty_Neutral>  (91) 
0.00102507

>  <r_epik_State_Penalty>  (91) 
0.000669326

>  <r_epik_Charging_Adjusted_Penalty>  (91) 
0.000669326

>  <i_epik_Tot_Q>  (91) 
0

>  <i_epik_Tot_abs_Q>  (91) 
0

>  <s_epik_Chemistry_Notes>  (91) 
This compound has an ester and may undergo hydrolysis at high or low pH. This compound has an imine and may undergo hydrolysis.

>  <s_lp_Force_Field>  (91) 
OPLS3e

>  <r_lp_Energy>  (91) 
27.0026

>  <b_lp_Chiralities_Consistent>  (91) 
1

>  <s_lp_Variant>  (91) 
28:0-4

>  <s_i_glide_gridfile>  (91) 
pfpi4k_grid

>  <i_i_glide_lignum>  (91) 
1

>  <i_i_glide_rotatable_bonds>  (91) 
5

>  <r_i_docking_score>  (91) 
-3.61838

>  <r_i_glide_ligand_efficiency>  (91) 
-0.226149

>  <r_i_glide_ligand_efficiency_sa>  (91) 
-0.569859

>  <r_i_glide_ligand_efficiency_ln>  (91) 
-0.959123

>  <r_i_glide_gscore>  (91) 
-3.61838

>  <r_i_glide_lipo>  (91) 
-0.449166

>  <r_i_glide_hbond>  (91) 
-0.295992

>  <r_i_glide_metal>  (91) 
-0

>  <r_i_glide_rewards>  (91) 
-2.05455

>  <r_i_glide_evdw>  (91) 
-21.2101

>  <r_i_glide_ecoul>  (91) 
-5.18663

>  <r_i_glide_erotb>  (91) 
1.05818

>  <r_i_glide_esite>  (91) 
-0.0383439

>  <r_i_glide_emodel>  (91) 
-29.8075

>  <r_i_glide_energy>  (91) 
-26.3968

>  <r_i_glide_einternal>  (91) 
6.04848

>  <r_i_glide_intrahb_reward>  (91) 
-0

>  <i_i_glide_confnum>  (91) 
5

>  <i_i_glide_posenum>  (91) 
39

>  <r_i_glide_eff_state_penalty>  (91) 
0

>  <ligand_id>  (91) 
28

>  <original_smiles>  (91) 
COC(=O)C(C)=C(C=N)Cc1ccncc1

>  <smiles>  (91) 
[H]N=C([H])C(=C(C(=O)OC([H])([H])[H])C([H])([H])[H])C([H])([H])c1c([H])c([H])nc([H])c1[H]

$$$$
28:3:1
     RDKit          3D

 30 30  0  0  1  0  0  0  0  0999 V2000
    3.5405    0.3305   -4.9893 C   0  0  0  0  0  0  0  0  0  0  0  0
    3.2596   -0.8817   -4.3227 O   0  0  0  0  0  0  0  0  0  0  0  0
    3.7407   -1.0936   -3.0927 C   0  0  0  0  0  0  0  0  0  0  0  0
    4.6001   -0.3583   -2.6144 O   0  0  0  0  0  0  0  0  0  0  0  0
    3.1123   -2.2743   -2.4063 C   0  0  0  0  0  0  0  0  0  0  0  0
    2.0641   -3.0250   -3.2547 C   0  0  0  0  0  0  0  0  0  0  0  0
    3.4599   -2.6509   -1.1297 C   0  0  0  0  0  0  0  0  0  0  0  0
    2.8150   -3.8504   -0.5028 C   0  0  0  0  0  0  0  0  0  0  0  0
    3.0476   -4.2756    0.6617 N   0  0  0  0  0  0  0  0  0  0  0  0
    4.4807   -1.9581   -0.1992 C   0  0  0  0  0  0  0  0  0  0  0  0
    5.8687   -2.5940   -0.2059 C   0  0  0  0  0  0  0  0  0  0  0  0
    6.3442   -3.3111    0.9127 C   0  0  0  0  0  0  0  0  0  0  0  0
    7.6396   -3.8706    0.8650 C   0  0  0  0  0  0  0  0  0  0  0  0
    8.4643   -3.7429   -0.1941 N   0  0  0  0  0  0  0  0  0  0  0  0
    8.0077   -3.0597   -1.2622 C   0  0  0  0  0  0  0  0  0  0  0  0
    6.7230   -2.4812   -1.3205 C   0  0  0  0  0  0  0  0  0  0  0  0
    3.0527    0.3368   -5.9652 H   0  0  0  0  0  0  0  0  0  0  0  0
    4.6144    0.4421   -5.1225 H   0  0  0  0  0  0  0  0  0  0  0  0
    3.1930    1.1791   -4.4033 H   0  0  0  0  0  0  0  0  0  0  0  0
    1.5776   -2.4453   -4.0383 H   0  0  0  0  0  0  0  0  0  0  0  0
    1.2202   -3.3576   -2.6547 H   0  0  0  0  0  0  0  0  0  0  0  0
    2.5124   -3.8908   -3.7434 H   0  0  0  0  0  0  0  0  0  0  0  0
    2.0879   -4.3976   -1.1041 H   0  0  0  0  0  0  0  0  0  0  0  0
    3.7455   -3.7284    1.1476 H   0  0  0  0  0  0  0  0  0  0  0  0
    4.5785   -0.8916   -0.3835 H   0  0  0  0  0  0  0  0  0  0  0  0
    4.1011   -1.9667    0.8256 H   0  0  0  0  0  0  0  0  0  0  0  0
    5.7379   -3.4330    1.7986 H   0  0  0  0  0  0  0  0  0  0  0  0
    8.0307   -4.4223    1.7082 H   0  0  0  0  0  0  0  0  0  0  0  0
    8.6770   -2.9797   -2.1034 H   0  0  0  0  0  0  0  0  0  0  0  0
    6.4153   -1.9712   -2.2172 H   0  0  0  0  0  0  0  0  0  0  0  0
  1  2  1  0
  1 17  1  0
  1 18  1  0
  1 19  1  0
  2  3  1  0
  3  4  2  0
  3  5  1  0
  5  6  1  0
  5  7  2  3
  6 20  1  0
  6 21  1  0
  6 22  1  0
  7  8  1  0
  7 10  1  0
  8  9  2  3
  8 23  1  0
  9 24  1  0
 10 11  1  0
 10 25  1  0
 10 26  1  0
 11 16  2  0
 11 12  1  0
 12 13  2  0
 12 27  1  0
 13 14  1  0
 13 28  1  0
 14 15  2  0
 15 16  1  0
 15 29  1  0
 16 30  1  0
M  END
>  <i_m_ct_stereo_status>  (92) 
1

>  <s_m_source_file>  (92) 
/var/tmp/pbs.5076255.sched01/tmp5eg4wc32/41mqp692j8.sdf

>  <i_m_source_file_index>  (92) 
1

>  <i_lp_mmshare_version>  (92) 
48012

>  <i_f3d_flags>  (92) 
0

>  <s_epik_input>  (92) 
W0NIM11PQyg9TykvQyhbQ0gzXSk9QyhcW0NIXT1OXFtIXSlbQ0gyXWMxW2NIXVtjSF1uW2NIXVtjSF0x

>  <s_epik_cmdline>  (92) 
J2VwaWtfcHl0aG9uJywgJy1waHQnLCAnMi4wJywgJy1waCcsICc3LjAnLCAnLXRuJywgJzgnLCAnLW1hJywgJzIwMCcsICctaW1hZScsICc8aW5maWxlLm1hZT4nLCAnLW9tYWUnLCAnPG91dGZpbGUubWFlPic=

>  <r_epik_Ionization_Penalty>  (92) 
0.00102507

>  <r_epik_Ionization_Penalty_Charging>  (92) 
0

>  <r_epik_Ionization_Penalty_Neutral>  (92) 
0.00102507

>  <r_epik_State_Penalty>  (92) 
0.000669326

>  <r_epik_Charging_Adjusted_Penalty>  (92) 
0.000669326

>  <i_epik_Tot_Q>  (92) 
0

>  <i_epik_Tot_abs_Q>  (92) 
0

>  <s_epik_Chemistry_Notes>  (92) 
This compound has an ester and may undergo hydrolysis at high or low pH. This compound has an imine and may undergo hydrolysis.

>  <s_lp_Force_Field>  (92) 
OPLS3e

>  <r_lp_Energy>  (92) 
27.0026

>  <b_lp_Chiralities_Consistent>  (92) 
1

>  <s_lp_Variant>  (92) 
28:0-4

>  <s_i_glide_gridfile>  (92) 
pfpi4k_grid

>  <i_i_glide_lignum>  (92) 
1

>  <i_i_glide_rotatable_bonds>  (92) 
5

>  <r_i_docking_score>  (92) 
-3.25239

>  <r_i_glide_ligand_efficiency>  (92) 
-0.203274

>  <r_i_glide_ligand_efficiency_sa>  (92) 
-0.512219

>  <r_i_glide_ligand_efficiency_ln>  (92) 
-0.86211

>  <r_i_glide_gscore>  (92) 
-3.25239

>  <r_i_glide_lipo>  (92) 
-0.526099

>  <r_i_glide_hbond>  (92) 
0

>  <r_i_glide_metal>  (92) 
-0

>  <r_i_glide_rewards>  (92) 
-1.99809

>  <r_i_glide_evdw>  (92) 
-26.3743

>  <r_i_glide_ecoul>  (92) 
-2.91852

>  <r_i_glide_erotb>  (92) 
1.05818

>  <r_i_glide_esite>  (92) 
-0.0298783

>  <r_i_glide_emodel>  (92) 
-33.8404

>  <r_i_glide_energy>  (92) 
-29.2928

>  <r_i_glide_einternal>  (92) 
3.11386

>  <r_i_glide_intrahb_reward>  (92) 
-0

>  <i_i_glide_confnum>  (92) 
6

>  <i_i_glide_posenum>  (92) 
7

>  <r_i_glide_eff_state_penalty>  (92) 
0

>  <ligand_id>  (92) 
28

>  <original_smiles>  (92) 
COC(=O)C(C)=C(C=N)Cc1ccncc1

>  <smiles>  (92) 
[H]N=C([H])C(=C(C(=O)OC([H])([H])[H])C([H])([H])[H])C([H])([H])c1c([H])c([H])nc([H])c1[H]

$$$$
28:3:2
     RDKit          3D

 30 30  0  0  1  0  0  0  0  0999 V2000
    3.5453    0.5406   -5.1211 C   0  0  0  0  0  0  0  0  0  0  0  0
    3.2230   -0.6590   -4.4462 O   0  0  0  0  0  0  0  0  0  0  0  0
    3.7076   -0.8937   -3.2122 C   0  0  0  0  0  0  0  0  0  0  0  0
    4.6015   -0.2105   -2.7229 O   0  0  0  0  0  0  0  0  0  0  0  0
    3.0435   -2.0502   -2.5297 C   0  0  0  0  0  0  0  0  0  0  0  0
    2.1216   -2.8911   -3.4307 C   0  0  0  0  0  0  0  0  0  0  0  0
    3.2736   -2.3244   -1.2024 C   0  0  0  0  0  0  0  0  0  0  0  0
    2.6246   -3.5051   -0.5605 C   0  0  0  0  0  0  0  0  0  0  0  0
    2.7717   -3.8478    0.6464 N   0  0  0  0  0  0  0  0  0  0  0  0
    4.1946   -1.5194   -0.2547 C   0  0  0  0  0  0  0  0  0  0  0  0
    5.6766   -1.8696   -0.3268 C   0  0  0  0  0  0  0  0  0  0  0  0
    6.2009   -2.7988   -1.2574 C   0  0  0  0  0  0  0  0  0  0  0  0
    7.5863   -3.0600   -1.2492 C   0  0  0  0  0  0  0  0  0  0  0  0
    8.4417   -2.4629   -0.3924 N   0  0  0  0  0  0  0  0  0  0  0  0
    7.9410   -1.5700    0.4773 C   0  0  0  0  0  0  0  0  0  0  0  0
    6.5767   -1.2452    0.5553 C   0  0  0  0  0  0  0  0  0  0  0  0
    3.0591    0.5299   -6.0925 H   0  0  0  0  0  0  0  0  0  0  0  0
    4.6112    0.6382   -5.2714 H   0  0  0  0  0  0  0  0  0  0  0  0
    3.2075    1.4083   -4.5613 H   0  0  0  0  0  0  0  0  0  0  0  0
    1.7047   -2.3949   -4.3069 H   0  0  0  0  0  0  0  0  0  0  0  0
    1.2360   -3.1953   -2.8819 H   0  0  0  0  0  0  0  0  0  0  0  0
    2.6543   -3.7718   -3.7898 H   0  0  0  0  0  0  0  0  0  0  0  0
    1.9802   -4.1223   -1.1882 H   0  0  0  0  0  0  0  0  0  0  0  0
    3.3799   -3.2289    1.1603 H   0  0  0  0  0  0  0  0  0  0  0  0
    4.0618   -0.4506   -0.4126 H   0  0  0  0  0  0  0  0  0  0  0  0
    3.8953   -1.6152    0.7921 H   0  0  0  0  0  0  0  0  0  0  0  0
    5.5808   -3.3184   -1.9680 H   0  0  0  0  0  0  0  0  0  0  0  0
    8.0236   -3.7533   -1.9495 H   0  0  0  0  0  0  0  0  0  0  0  0
    8.6639   -1.0737    1.1178 H   0  0  0  0  0  0  0  0  0  0  0  0
    6.2366   -0.5142    1.2753 H   0  0  0  0  0  0  0  0  0  0  0  0
  1  2  1  0
  1 17  1  0
  1 18  1  0
  1 19  1  0
  2  3  1  0
  3  4  2  0
  3  5  1  0
  5  6  1  0
  5  7  2  3
  6 20  1  0
  6 21  1  0
  6 22  1  0
  7  8  1  0
  7 10  1  0
  8  9  2  3
  8 23  1  0
  9 24  1  0
 10 11  1  0
 10 25  1  0
 10 26  1  0
 11 16  2  0
 11 12  1  0
 12 13  2  0
 12 27  1  0
 13 14  1  0
 13 28  1  0
 14 15  2  0
 15 16  1  0
 15 29  1  0
 16 30  1  0
M  END
>  <i_m_ct_stereo_status>  (93) 
1

>  <s_m_source_file>  (93) 
/var/tmp/pbs.5076255.sched01/tmp5eg4wc32/41mqp692j8.sdf

>  <i_m_source_file_index>  (93) 
1

>  <i_lp_mmshare_version>  (93) 
48012

>  <i_f3d_flags>  (93) 
0

>  <s_epik_input>  (93) 
W0NIM11PQyg9TykvQyhbQ0gzXSk9QyhcW0NIXT1OXFtIXSlbQ0gyXWMxW2NIXVtjSF1uW2NIXVtjSF0x

>  <s_epik_cmdline>  (93) 
J2VwaWtfcHl0aG9uJywgJy1waHQnLCAnMi4wJywgJy1waCcsICc3LjAnLCAnLXRuJywgJzgnLCAnLW1hJywgJzIwMCcsICctaW1hZScsICc8aW5maWxlLm1hZT4nLCAnLW9tYWUnLCAnPG91dGZpbGUubWFlPic=

>  <r_epik_Ionization_Penalty>  (93) 
0.00102507

>  <r_epik_Ionization_Penalty_Charging>  (93) 
0

>  <r_epik_Ionization_Penalty_Neutral>  (93) 
0.00102507

>  <r_epik_State_Penalty>  (93) 
0.000669326

>  <r_epik_Charging_Adjusted_Penalty>  (93) 
0.000669326

>  <i_epik_Tot_Q>  (93) 
0

>  <i_epik_Tot_abs_Q>  (93) 
0

>  <s_epik_Chemistry_Notes>  (93) 
This compound has an ester and may undergo hydrolysis at high or low pH. This compound has an imine and may undergo hydrolysis.

>  <s_lp_Force_Field>  (93) 
OPLS3e

>  <r_lp_Energy>  (93) 
27.0026

>  <b_lp_Chiralities_Consistent>  (93) 
1

>  <s_lp_Variant>  (93) 
28:0-4

>  <s_i_glide_gridfile>  (93) 
pfpi4k_grid

>  <i_i_glide_lignum>  (93) 
1

>  <i_i_glide_rotatable_bonds>  (93) 
5

>  <r_i_docking_score>  (93) 
-3.03881

>  <r_i_glide_ligand_efficiency>  (93) 
-0.189926

>  <r_i_glide_ligand_efficiency_sa>  (93) 
-0.478583

>  <r_i_glide_ligand_efficiency_ln>  (93) 
-0.805498

>  <r_i_glide_gscore>  (93) 
-3.03881

>  <r_i_glide_lipo>  (93) 
-0.347625

>  <r_i_glide_hbond>  (93) 
-0.0326274

>  <r_i_glide_metal>  (93) 
-0

>  <r_i_glide_rewards>  (93) 
-2.08239

>  <r_i_glide_evdw>  (93) 
-25.5877

>  <r_i_glide_ecoul>  (93) 
-2.17521

>  <r_i_glide_erotb>  (93) 
1.05818

>  <r_i_glide_esite>  (93) 
-0.0286778

>  <r_i_glide_emodel>  (93) 
-31.6138

>  <r_i_glide_energy>  (93) 
-27.7629

>  <r_i_glide_einternal>  (93) 
3.50304

>  <r_i_glide_intrahb_reward>  (93) 
-0

>  <i_i_glide_confnum>  (93) 
6

>  <i_i_glide_posenum>  (93) 
1

>  <r_i_glide_eff_state_penalty>  (93) 
0

>  <ligand_id>  (93) 
28

>  <original_smiles>  (93) 
COC(=O)C(C)=C(C=N)Cc1ccncc1

>  <smiles>  (93) 
[H]N=C([H])C(=C(C(=O)OC([H])([H])[H])C([H])([H])[H])C([H])([H])c1c([H])c([H])nc([H])c1[H]

$$$$
30:0:0
     RDKit          3D

 74 78  0  0  1  0  0  0  0  0999 V2000
    2.4301   -5.2122    7.6702 C   0  0  0  0  0  0  0  0  0  0  0  0
    1.3752   -6.3789    7.6495 C   0  0  0  0  0  0  0  0  0  0  0  0
    0.9576   -6.5861    9.1329 C   0  0  0  0  0  0  0  0  0  0  0  0
    1.7964   -7.7535    6.9596 C   0  0  2  0  0  0  0  0  0  0  0  0
    3.3124   -7.9801    7.1081 C   0  0  0  0  0  0  0  0  0  0  0  0
    3.7299   -9.3989    6.7655 C   0  0  0  0  0  0  0  0  0  0  0  0
    3.3464   -9.7338    5.3303 C   0  0  1  0  0  0  0  0  0  0  0  0
    3.8931  -11.1422    5.0056 C   0  0  0  0  0  0  0  0  0  0  0  0
    1.8142   -9.5550    5.0891 C   0  0  2  0  0  0  0  0  0  0  0  0
    1.5089   -9.9686    3.6288 C   0  0  0  0  0  0  0  0  0  0  0  0
    0.0513   -9.9107    3.1799 C   0  0  0  0  0  0  0  0  0  0  0  0
   -0.6363   -8.5215    3.2671 C   0  0  1  0  0  0  0  0  0  0  0  0
   -1.8941   -8.5727    2.4061 C   0  0  0  0  0  0  0  0  0  0  0  0
   -1.1142   -8.0916    4.5527 O   0  0  0  0  0  0  0  0  0  0  0  0
   -0.1393   -8.3927    5.7122 O   0  0  0  0  0  0  0  0  0  0  0  0
    1.2753   -8.1106    5.4995 C   0  0  1  0  0  0  0  0  0  0  0  0
    1.6766   -7.0489    4.4094 C   0  0  2  0  0  0  0  0  0  0  0  0
    2.2390   -5.8758    4.8575 O   0  0  0  0  0  0  0  0  0  0  0  0
    1.9474   -4.9091    3.9280 C   0  0  1  0  0  0  0  0  0  0  0  0
    3.2813   -4.3811    3.3593 C   0  0  0  0  0  0  0  0  0  0  0  0
    3.2173   -3.0088    2.9756 O   0  0  0  0  0  0  0  0  0  0  0  0
    3.6271   -2.8326    1.6623 C   0  0  2  0  0  0  0  0  0  0  0  0
    4.9394   -3.2690    1.5430 O   0  0  0  0  0  0  0  0  0  0  0  0
    5.5343   -3.1944    0.2527 C   0  0  1  0  0  0  0  0  0  0  0  0
    4.8524   -4.1646   -0.7585 C   0  0  0  0  0  0  0  0  0  0  0  0
    5.5726   -1.6949   -0.1337 C   0  0  1  0  0  0  0  0  0  0  0  0
    6.1728   -1.5655   -1.4023 O   0  0  0  0  0  0  0  0  0  0  0  0
    4.1798   -1.0439   -0.0950 C   0  0  1  0  0  0  0  0  0  0  0  0
    3.4143   -1.5506   -1.1920 O   0  0  0  0  0  0  0  0  0  0  0  0
    3.5448   -1.3249    1.3008 C   0  0  1  0  0  0  0  0  0  0  0  0
    2.2190   -0.8008    1.2976 O   0  0  0  0  0  0  0  0  0  0  0  0
    1.1449   -5.4645    2.9389 O   0  0  0  0  0  0  0  0  0  0  0  0
    0.5486   -6.5378    3.5377 C   0  0  1  0  0  0  0  0  0  0  0  0
    0.1382   -7.5172    2.6421 O   0  0  0  0  0  0  0  0  0  0  0  0
    3.3087   -5.5152    8.2683 H   0  0  0  0  0  0  0  0  0  0  0  0
    2.0151   -4.3840    8.2696 H   0  0  0  0  0  0  0  0  0  0  0  0
    2.7607   -4.8254    6.7279 H   0  0  0  0  0  0  0  0  0  0  0  0
    0.4665   -6.0705    7.1331 H   0  0  0  0  0  0  0  0  0  0  0  0
    1.7958   -6.9269    9.7382 H   0  0  0  0  0  0  0  0  0  0  0  0
    0.1219   -7.2666    9.2973 H   0  0  0  0  0  0  0  0  0  0  0  0
    0.6676   -5.6247    9.5494 H   0  0  0  0  0  0  0  0  0  0  0  0
    1.3553   -8.5416    7.5724 H   0  0  0  0  0  0  0  0  0  0  0  0
    3.8521   -7.3065    6.4532 H   0  0  0  0  0  0  0  0  0  0  0  0
    3.6145   -7.7901    8.1346 H   0  0  0  0  0  0  0  0  0  0  0  0
    4.8138   -9.4738    6.8813 H   0  0  0  0  0  0  0  0  0  0  0  0
    3.2858  -10.1154    7.4612 H   0  0  0  0  0  0  0  0  0  0  0  0
    3.8743   -9.0424    4.6723 H   0  0  0  0  0  0  0  0  0  0  0  0
    3.3239  -11.9205    5.5197 H   0  0  0  0  0  0  0  0  0  0  0  0
    4.9337  -11.2319    5.3244 H   0  0  0  0  0  0  0  0  0  0  0  0
    3.8893  -11.3555    3.9358 H   0  0  0  0  0  0  0  0  0  0  0  0
    1.3040  -10.2850    5.7258 H   0  0  0  0  0  0  0  0  0  0  0  0
    2.1256   -9.4074    2.9260 H   0  0  0  0  0  0  0  0  0  0  0  0
    1.8079  -11.0048    3.4674 H   0  0  0  0  0  0  0  0  0  0  0  0
    0.0644  -10.2128    2.1338 H   0  0  0  0  0  0  0  0  0  0  0  0
   -0.5422  -10.6560    3.7032 H   0  0  0  0  0  0  0  0  0  0  0  0
   -2.4297   -7.6282    2.5067 H   0  0  0  0  0  0  0  0  0  0  0  0
   -2.5411   -9.3926    2.7209 H   0  0  0  0  0  0  0  0  0  0  0  0
   -1.6386   -8.7114    1.3538 H   0  0  0  0  0  0  0  0  0  0  0  0
    2.4132   -7.4794    3.7247 H   0  0  0  0  0  0  0  0  0  0  0  0
    1.3559   -4.1387    4.4364 H   0  0  0  0  0  0  0  0  0  0  0  0
    3.9385   -4.3722    4.2002 H   0  0  0  0  0  0  0  0  0  0  0  0
    3.6829   -5.1016    2.6360 H   0  0  0  0  0  0  0  0  0  0  0  0
    2.9637   -3.4451    1.0537 H   0  0  0  0  0  0  0  0  0  0  0  0
    6.5720   -3.4962    0.3896 H   0  0  0  0  0  0  0  0  0  0  0  0
    5.2926   -4.0707   -1.7521 H   0  0  0  0  0  0  0  0  0  0  0  0
    3.7773   -3.9869   -0.8546 H   0  0  0  0  0  0  0  0  0  0  0  0
    5.0097   -5.2032   -0.4584 H   0  0  0  0  0  0  0  0  0  0  0  0
    6.2273   -1.1604    0.5683 H   0  0  0  0  0  0  0  0  0  0  0  0
    5.5881   -2.0191   -2.0014 H   0  0  0  0  0  0  0  0  0  0  0  0
    4.2898    0.0516   -0.1916 H   0  0  0  0  0  0  0  0  0  0  0  0
    2.4858   -1.3129   -1.0964 H   0  0  0  0  0  0  0  0  0  0  0  0
    4.1114   -0.8052    2.0736 H   0  0  0  0  0  0  0  0  0  0  0  0
    1.7500   -1.0401    0.4924 H   0  0  0  0  0  0  0  0  0  0  0  0
   -0.2919   -6.1516    4.0898 H   0  0  0  0  0  0  0  0  0  0  0  0
  1  2  1  0
  1 35  1  0
  1 36  1  0
  1 37  1  0
  2  3  1  0
  2  4  1  0
  2 38  1  0
  3 39  1  0
  3 40  1  0
  3 41  1  0
  4 16  1  0
  4  5  1  0
  4 42  1  1
  5  6  1  0
  5 43  1  0
  5 44  1  0
  6  7  1  0
  6 45  1  0
  6 46  1  0
  7  8  1  0
  7  9  1  0
  7 47  1  6
  8 48  1  0
  8 49  1  0
  8 50  1  0
  9 16  1  0
  9 10  1  0
  9 51  1  1
 10 11  1  0
 10 52  1  0
 10 53  1  0
 11 12  1  0
 11 54  1  0
 11 55  1  0
 12 34  1  0
 12 13  1  6
 12 14  1  0
 13 56  1  0
 13 57  1  0
 13 58  1  0
 14 15  1  0
 16 15  1  1
 16 17  1  0
 17 33  1  0
 17 18  1  0
 17 59  1  6
 18 19  1  0
 19 20  1  0
 19 32  1  0
 19 60  1  1
 20 21  1  0
 20 61  1  0
 20 62  1  0
 21 22  1  0
 22 30  1  0
 22 23  1  0
 22 63  1  6
 23 24  1  0
 24 25  1  0
 24 26  1  0
 24 64  1  1
 25 65  1  0
 25 66  1  0
 25 67  1  0
 26 27  1  0
 26 28  1  0
 26 68  1  1
 27 69  1  0
 28 29  1  0
 28 30  1  0
 28 70  1  6
 29 71  1  0
 30 31  1  0
 30 72  1  1
 31 73  1  0
 32 33  1  0
 33 34  1  0
 33 74  1  1
M  END
>  <i_m_ct_stereo_status>  (94) 
1

>  <s_m_source_file>  (94) 
/var/tmp/pbs.5076255.sched01/tmp5eg4wc32/41mqp692j8.sdf

>  <i_m_source_file_index>  (94) 
3

>  <i_lp_mmshare_version>  (94) 
48012

>  <i_f3d_flags>  (94) 
0

>  <s_epik_input>  (94) 
W0NIM11bQ0hdKFtDSDNdKVtDQEBIXTFbQ0gyXVtDSDJdW0NAQEhdKFtDSDNdKVtDQEBIXShbQ0BdMTIzKVtDSDJdW0NIMl1bQ0BAXShbQ0gzXSkoT08yKU9bQ0BIXTRbQ0BIXTNPW0NASF0oTzQpW0NIMl1PW0NAQEhdNU9bQ0BASF0oW0NIM10pW0NAQEhdKFtPSF0pW0NAQEhdKFtPSF0pW0NASF01W09IXQ==

>  <s_epik_cmdline>  (94) 
J2VwaWtfcHl0aG9uJywgJy1waHQnLCAnMi4wJywgJy1waCcsICc3LjAnLCAnLXRuJywgJzgnLCAnLW1hJywgJzIwMCcsICctaW1hZScsICc8aW5maWxlLm1hZT4nLCAnLW9tYWUnLCAnPG91dGZpbGUubWFlPic=

>  <r_lp_tautomer_probability>  (94) 
1

>  <r_epik_Ionization_Penalty>  (94) 
2.28547e-06

>  <r_epik_Ionization_Penalty_Charging>  (94) 
0

>  <r_epik_Ionization_Penalty_Neutral>  (94) 
2.28547e-06

>  <r_epik_State_Penalty>  (94) 
-0

>  <r_epik_Charging_Adjusted_Penalty>  (94) 
0

>  <i_epik_Tot_Q>  (94) 
0

>  <i_epik_Tot_abs_Q>  (94) 
0

>  <s_epik_Chemistry_Notes>  (94) 
This compound contains an acetal/aminal-like group ( X-CH(R)-Y where X, Y are N, S, or O) that may be acid/base labile, releasing an aldehyde.

>  <s_lp_Force_Field>  (94) 
OPLS3e

>  <r_lp_Energy>  (94) 
49.2966

>  <b_lp_Chiralities_Consistent>  (94) 
1

>  <s_lp_Variant>  (94) 
30:0-1

>  <s_i_glide_gridfile>  (94) 
pfpi4k_grid

>  <i_i_glide_lignum>  (94) 
3

>  <i_i_glide_rotatable_bonds>  (94) 
7

>  <r_i_docking_score>  (94) 
-3.03504

>  <r_i_glide_ligand_efficiency>  (94) 
-0.089266

>  <r_i_glide_ligand_efficiency_sa>  (94) 
-0.289187

>  <r_i_glide_ligand_efficiency_ln>  (94) 
-0.670526

>  <r_i_glide_gscore>  (94) 
-3.03504

>  <r_i_glide_lipo>  (94) 
-0.318217

>  <r_i_glide_hbond>  (94) 
0

>  <r_i_glide_metal>  (94) 
-0

>  <r_i_glide_rewards>  (94) 
-0.0779427

>  <r_i_glide_evdw>  (94) 
-21.8511

>  <r_i_glide_ecoul>  (94) 
-11.3802

>  <r_i_glide_erotb>  (94) 
0.255602

>  <r_i_glide_esite>  (94) 
-0.0948917

>  <r_i_glide_emodel>  (94) 
-33.5865

>  <r_i_glide_energy>  (94) 
-33.2314

>  <r_i_glide_einternal>  (94) 
8.14237

>  <r_i_glide_intrahb_reward>  (94) 
-0

>  <i_i_glide_confnum>  (94) 
1

>  <i_i_glide_posenum>  (94) 
27

>  <r_i_glide_eff_state_penalty>  (94) 
0

>  <ligand_id>  (94) 
30

>  <original_smiles>  (94) 
CC(C)C1CCC(C)C2CCC3(C)OOC12C1OC(COC2OC(C)C(O)C(O)C2O)OC1O3

>  <smiles>  (94) 
[H]OC1([H])C([H])(OC([H])([H])C2([H])OC3([H])OC4(C([H])([H])[H])OOC5(C3([H])O2)C([H])(C([H])(C([H])([H])[H])C([H])([H])[H])C([H])([H])C([H])([H])C([H])(C([H])([H])[H])C5([H])C([H])([H])C4([H])[H])OC([H])(C([H])([H])[H])C([H])(O[H])C1([H])O[H]

$$$$
30:0:1
     RDKit          3D

 74 78  0  0  1  0  0  0  0  0999 V2000
    3.3761   -8.0175    9.2136 C   0  0  0  0  0  0  0  0  0  0  0  0
    2.7281   -7.6162    7.8706 C   0  0  0  0  0  0  0  0  0  0  0  0
    1.2735   -7.2046    8.1583 C   0  0  0  0  0  0  0  0  0  0  0  0
    2.9169   -8.7161    6.7659 C   0  0  2  0  0  0  0  0  0  0  0  0
    4.4092   -8.7880    6.3754 C   0  0  0  0  0  0  0  0  0  0  0  0
    4.7146  -10.0382    5.5749 C   0  0  0  0  0  0  0  0  0  0  0  0
    3.9241  -10.0535    4.2787 C   0  0  1  0  0  0  0  0  0  0  0  0
    4.3347  -11.3065    3.4848 C   0  0  0  0  0  0  0  0  0  0  0  0
    2.3943   -9.9280    4.5450 C   0  0  2  0  0  0  0  0  0  0  0  0
    1.6600   -9.9869    3.1791 C   0  0  0  0  0  0  0  0  0  0  0  0
    0.1335   -9.9249    3.2235 C   0  0  0  0  0  0  0  0  0  0  0  0
   -0.4727   -8.6446    3.8520 C   0  0  1  0  0  0  0  0  0  0  0  0
   -1.9391   -8.5400    3.3926 C   0  0  0  0  0  0  0  0  0  0  0  0
   -0.5226   -8.5765    5.2867 O   0  0  0  0  0  0  0  0  0  0  0  0
    0.6996   -9.1718    5.9493 O   0  0  0  0  0  0  0  0  0  0  0  0
    1.9844   -8.7056    5.4757 C   0  0  1  0  0  0  0  0  0  0  0  0
    2.0813   -7.3542    4.6705 C   0  0  2  0  0  0  0  0  0  0  0  0
    2.7552   -6.2658    5.2499 O   0  0  0  0  0  0  0  0  0  0  0  0
    2.2055   -5.1245    4.6706 C   0  0  1  0  0  0  0  0  0  0  0  0
    3.3056   -4.4052    3.8824 C   0  0  0  0  0  0  0  0  0  0  0  0
    2.9024   -3.0753    3.5520 O   0  0  0  0  0  0  0  0  0  0  0  0
    3.4729   -2.6493    2.3567 C   0  0  2  0  0  0  0  0  0  0  0  0
    4.8663   -2.6076    2.5182 O   0  0  0  0  0  0  0  0  0  0  0  0
    5.6310   -2.1853    1.4045 C   0  0  1  0  0  0  0  0  0  0  0  0
    5.6035   -3.2144    0.2248 C   0  0  0  0  0  0  0  0  0  0  0  0
    5.2125   -0.7469    1.1068 C   0  0  1  0  0  0  0  0  0  0  0  0
    6.0410   -0.3106    0.0661 O   0  0  0  0  0  0  0  0  0  0  0  0
    3.7034   -0.5885    0.8213 C   0  0  1  0  0  0  0  0  0  0  0  0
    3.4038   -1.1574   -0.4520 O   0  0  0  0  0  0  0  0  0  0  0  0
    2.9277   -1.2269    2.0076 C   0  0  1  0  0  0  0  0  0  0  0  0
    1.5436   -1.2239    1.7028 O   0  0  0  0  0  0  0  0  0  0  0  0
    1.1678   -5.4909    3.8206 O   0  0  0  0  0  0  0  0  0  0  0  0
    0.7633   -6.7261    4.2716 C   0  0  1  0  0  0  0  0  0  0  0  0
    0.1754   -7.5033    3.2895 O   0  0  0  0  0  0  0  0  0  0  0  0
    2.9474   -8.9386    9.6120 H   0  0  0  0  0  0  0  0  0  0  0  0
    3.2275   -7.2380    9.9598 H   0  0  0  0  0  0  0  0  0  0  0  0
    4.4553   -8.1522    9.1529 H   0  0  0  0  0  0  0  0  0  0  0  0
    3.2503   -6.7127    7.5518 H   0  0  0  0  0  0  0  0  0  0  0  0
    0.6783   -8.0495    8.5022 H   0  0  0  0  0  0  0  0  0  0  0  0
    0.7940   -6.7659    7.2881 H   0  0  0  0  0  0  0  0  0  0  0  0
    1.2560   -6.4469    8.9452 H   0  0  0  0  0  0  0  0  0  0  0  0
    2.6696   -9.6603    7.2395 H   0  0  0  0  0  0  0  0  0  0  0  0
    4.7071   -7.9128    5.7949 H   0  0  0  0  0  0  0  0  0  0  0  0
    5.0449   -8.8173    7.2503 H   0  0  0  0  0  0  0  0  0  0  0  0
    5.7814  -10.0621    5.3516 H   0  0  0  0  0  0  0  0  0  0  0  0
    4.4869  -10.9252    6.1699 H   0  0  0  0  0  0  0  0  0  0  0  0
    4.2334   -9.1917    3.6852 H   0  0  0  0  0  0  0  0  0  0  0  0
    3.9348  -12.2257    3.9159 H   0  0  0  0  0  0  0  0  0  0  0  0
    5.4189  -11.3987    3.4362 H   0  0  0  0  0  0  0  0  0  0  0  0
    3.9962  -11.2391    2.4577 H   0  0  0  0  0  0  0  0  0  0  0  0
    2.0874  -10.8227    5.0886 H   0  0  0  0  0  0  0  0  0  0  0  0
    2.0410   -9.2265    2.4988 H   0  0  0  0  0  0  0  0  0  0  0  0
    1.8883  -10.9332    2.6877 H   0  0  0  0  0  0  0  0  0  0  0  0
   -0.1721   -9.9712    2.1738 H   0  0  0  0  0  0  0  0  0  0  0  0
   -0.2610  -10.8327    3.6748 H   0  0  0  0  0  0  0  0  0  0  0  0
   -2.3955   -7.6784    3.8594 H   0  0  0  0  0  0  0  0  0  0  0  0
   -2.4939   -9.4293    3.6835 H   0  0  0  0  0  0  0  0  0  0  0  0
   -2.0193   -8.4371    2.3088 H   0  0  0  0  0  0  0  0  0  0  0  0
    2.6430   -7.5080    3.7468 H   0  0  0  0  0  0  0  0  0  0  0  0
    1.8042   -4.5043    5.4753 H   0  0  0  0  0  0  0  0  0  0  0  0
    4.1661   -4.2942    4.5361 H   0  0  0  0  0  0  0  0  0  0  0  0
    3.6192   -5.0425    3.0490 H   0  0  0  0  0  0  0  0  0  0  0  0
    3.2072   -3.3842    1.6010 H   0  0  0  0  0  0  0  0  0  0  0  0
    6.6616   -2.1118    1.7527 H   0  0  0  0  0  0  0  0  0  0  0  0
    6.1627   -2.8392   -0.6369 H   0  0  0  0  0  0  0  0  0  0  0  0
    4.6022   -3.4415   -0.1507 H   0  0  0  0  0  0  0  0  0  0  0  0
    6.0602   -4.1603    0.5158 H   0  0  0  0  0  0  0  0  0  0  0  0
    5.4468   -0.1113    1.9636 H   0  0  0  0  0  0  0  0  0  0  0  0
    5.7202    0.5399   -0.2193 H   0  0  0  0  0  0  0  0  0  0  0  0
    3.4472    0.4763    0.7978 H   0  0  0  0  0  0  0  0  0  0  0  0
    2.4531   -1.1220   -0.6084 H   0  0  0  0  0  0  0  0  0  0  0  0
    3.0941   -0.6338    2.9025 H   0  0  0  0  0  0  0  0  0  0  0  0
    1.3902   -1.0833    0.7540 H   0  0  0  0  0  0  0  0  0  0  0  0
    0.1053   -6.5202    5.1191 H   0  0  0  0  0  0  0  0  0  0  0  0
  1  2  1  0
  1 35  1  0
  1 36  1  0
  1 37  1  0
  2  3  1  0
  2  4  1  0
  2 38  1  0
  3 39  1  0
  3 40  1  0
  3 41  1  0
  4 16  1  0
  4  5  1  0
  4 42  1  1
  5  6  1  0
  5 43  1  0
  5 44  1  0
  6  7  1  0
  6 45  1  0
  6 46  1  0
  7  8  1  0
  7  9  1  0
  7 47  1  6
  8 48  1  0
  8 49  1  0
  8 50  1  0
  9 16  1  0
  9 10  1  0
  9 51  1  1
 10 11  1  0
 10 52  1  0
 10 53  1  0
 11 12  1  0
 11 54  1  0
 11 55  1  0
 12 34  1  0
 12 13  1  6
 12 14  1  0
 13 56  1  0
 13 57  1  0
 13 58  1  0
 14 15  1  0
 16 15  1  1
 16 17  1  0
 17 33  1  0
 17 18  1  0
 17 59  1  6
 18 19  1  0
 19 20  1  0
 19 32  1  0
 19 60  1  1
 20 21  1  0
 20 61  1  0
 20 62  1  0
 21 22  1  0
 22 30  1  0
 22 23  1  0
 22 63  1  6
 23 24  1  0
 24 25  1  0
 24 26  1  0
 24 64  1  1
 25 65  1  0
 25 66  1  0
 25 67  1  0
 26 27  1  0
 26 28  1  0
 26 68  1  1
 27 69  1  0
 28 29  1  0
 28 30  1  0
 28 70  1  6
 29 71  1  0
 30 31  1  0
 30 72  1  1
 31 73  1  0
 32 33  1  0
 33 34  1  0
 33 74  1  1
M  END
>  <i_m_ct_stereo_status>  (95) 
1

>  <s_m_source_file>  (95) 
/var/tmp/pbs.5076255.sched01/tmp5eg4wc32/41mqp692j8.sdf

>  <i_m_source_file_index>  (95) 
3

>  <i_lp_mmshare_version>  (95) 
48012

>  <i_f3d_flags>  (95) 
0

>  <s_epik_input>  (95) 
W0NIM11bQ0hdKFtDSDNdKVtDQEBIXTFbQ0gyXVtDSDJdW0NAQEhdKFtDSDNdKVtDQEBIXShbQ0BdMTIzKVtDSDJdW0NIMl1bQ0BAXShbQ0gzXSkoT08yKU9bQ0BIXTRbQ0BIXTNPW0NASF0oTzQpW0NIMl1PW0NAQEhdNU9bQ0BASF0oW0NIM10pW0NAQEhdKFtPSF0pW0NAQEhdKFtPSF0pW0NASF01W09IXQ==

>  <s_epik_cmdline>  (95) 
J2VwaWtfcHl0aG9uJywgJy1waHQnLCAnMi4wJywgJy1waCcsICc3LjAnLCAnLXRuJywgJzgnLCAnLW1hJywgJzIwMCcsICctaW1hZScsICc8aW5maWxlLm1hZT4nLCAnLW9tYWUnLCAnPG91dGZpbGUubWFlPic=

>  <r_lp_tautomer_probability>  (95) 
1

>  <r_epik_Ionization_Penalty>  (95) 
2.28547e-06

>  <r_epik_Ionization_Penalty_Charging>  (95) 
0

>  <r_epik_Ionization_Penalty_Neutral>  (95) 
2.28547e-06

>  <r_epik_State_Penalty>  (95) 
-0

>  <r_epik_Charging_Adjusted_Penalty>  (95) 
0

>  <i_epik_Tot_Q>  (95) 
0

>  <i_epik_Tot_abs_Q>  (95) 
0

>  <s_epik_Chemistry_Notes>  (95) 
This compound contains an acetal/aminal-like group ( X-CH(R)-Y where X, Y are N, S, or O) that may be acid/base labile, releasing an aldehyde.

>  <s_lp_Force_Field>  (95) 
OPLS3e

>  <r_lp_Energy>  (95) 
49.2966

>  <b_lp_Chiralities_Consistent>  (95) 
1

>  <s_lp_Variant>  (95) 
30:0-1

>  <s_i_glide_gridfile>  (95) 
pfpi4k_grid

>  <i_i_glide_lignum>  (95) 
3

>  <i_i_glide_rotatable_bonds>  (95) 
7

>  <r_i_docking_score>  (95) 
-2.85728

>  <r_i_glide_ligand_efficiency>  (95) 
-0.0840376

>  <r_i_glide_ligand_efficiency_sa>  (95) 
-0.272249

>  <r_i_glide_ligand_efficiency_ln>  (95) 
-0.631253

>  <r_i_glide_gscore>  (95) 
-2.85728

>  <r_i_glide_lipo>  (95) 
-0.341595

>  <r_i_glide_hbond>  (95) 
0

>  <r_i_glide_metal>  (95) 
-0

>  <r_i_glide_rewards>  (95) 
-0.0779427

>  <r_i_glide_evdw>  (95) 
-18.4538

>  <r_i_glide_ecoul>  (95) 
-11.2768

>  <r_i_glide_erotb>  (95) 
0.255602

>  <r_i_glide_esite>  (95) 
-0.0791307

>  <r_i_glide_emodel>  (95) 
-33.317

>  <r_i_glide_energy>  (95) 
-29.7306

>  <r_i_glide_einternal>  (95) 
3.61955

>  <r_i_glide_intrahb_reward>  (95) 
-0

>  <i_i_glide_confnum>  (95) 
1

>  <i_i_glide_posenum>  (95) 
1

>  <r_i_glide_eff_state_penalty>  (95) 
0

>  <ligand_id>  (95) 
30

>  <original_smiles>  (95) 
CC(C)C1CCC(C)C2CCC3(C)OOC12C1OC(COC2OC(C)C(O)C(O)C2O)OC1O3

>  <smiles>  (95) 
[H]OC1([H])C([H])(OC([H])([H])C2([H])OC3([H])OC4(C([H])([H])[H])OOC5(C3([H])O2)C([H])(C([H])(C([H])([H])[H])C([H])([H])[H])C([H])([H])C([H])([H])C([H])(C([H])([H])[H])C5([H])C([H])([H])C4([H])[H])OC([H])(C([H])([H])[H])C([H])(O[H])C1([H])O[H]

$$$$
30:0:2
     RDKit          3D

 74 78  0  0  1  0  0  0  0  0999 V2000
    3.2751   -5.9234    7.2398 C   0  0  0  0  0  0  0  0  0  0  0  0
    4.4059   -5.3893    6.3573 C   0  0  0  0  0  0  0  0  0  0  0  0
    4.5774   -3.8458    6.5339 C   0  0  0  0  0  0  0  0  0  0  0  0
    4.4445   -6.0151    4.8985 C   0  0  2  0  0  0  0  0  0  0  0  0
    5.4325   -5.2371    3.9982 C   0  0  0  0  0  0  0  0  0  0  0  0
    5.7713   -6.0081    2.7304 C   0  0  0  0  0  0  0  0  0  0  0  0
    4.5084   -6.3084    1.9243 C   0  0  1  0  0  0  0  0  0  0  0  0
    4.9229   -6.9937    0.6056 C   0  0  0  0  0  0  0  0  0  0  0  0
    3.4650   -7.1044    2.7620 C   0  0  2  0  0  0  0  0  0  0  0  0
    2.2382   -7.4143    1.8720 C   0  0  0  0  0  0  0  0  0  0  0  0
    1.0923   -8.2221    2.4892 C   0  0  0  0  0  0  0  0  0  0  0  0
    0.4206   -7.6021    3.7398 C   0  0  1  0  0  0  0  0  0  0  0  0
   -0.9269   -8.3038    3.9664 C   0  0  0  0  0  0  0  0  0  0  0  0
    1.1326   -7.7713    4.9798 O   0  0  0  0  0  0  0  0  0  0  0  0
    2.6401   -7.6164    4.8363 O   0  0  0  0  0  0  0  0  0  0  0  0
    3.1129   -6.4248    4.1484 C   0  0  1  0  0  0  0  0  0  0  0  0
    2.1470   -5.2062    3.9137 C   0  0  2  0  0  0  0  0  0  0  0  0
    2.5200   -3.9997    4.5107 O   0  0  0  0  0  0  0  0  0  0  0  0
    1.3364   -3.3200    4.7338 C   0  0  1  0  0  0  0  0  0  0  0  0
    1.4056   -1.9673    3.9932 C   0  0  0  0  0  0  0  0  0  0  0  0
    0.6006   -0.9958    4.6492 O   0  0  0  0  0  0  0  0  0  0  0  0
    0.5521    0.1960    3.9383 C   0  0  2  0  0  0  0  0  0  0  0  0
    1.8022    0.8299    3.9618 O   0  0  0  0  0  0  0  0  0  0  0  0
    1.9030    2.0696    3.2742 C   0  0  1  0  0  0  0  0  0  0  0  0
    1.7582    1.8765    1.7522 C   0  0  0  0  0  0  0  0  0  0  0  0
    0.9311    3.0897    3.9124 C   0  0  1  0  0  0  0  0  0  0  0  0
    0.9934    4.3687    3.3442 O   0  0  0  0  0  0  0  0  0  0  0  0
   -0.5091    2.5347    3.9885 C   0  0  1  0  0  0  0  0  0  0  0  0
   -1.1189    2.5098    2.7027 O   0  0  0  0  0  0  0  0  0  0  0  0
   -0.4838    1.1144    4.6199 C   0  0  1  0  0  0  0  0  0  0  0  0
   -1.7940    0.5854    4.4970 O   0  0  0  0  0  0  0  0  0  0  0  0
    0.2669   -4.0930    4.3070 O   0  0  0  0  0  0  0  0  0  0  0  0
    0.7184   -5.3790    4.3672 C   0  0  1  0  0  0  0  0  0  0  0  0
    0.0682   -6.2448    3.4970 O   0  0  0  0  0  0  0  0  0  0  0  0
    2.3140   -5.6726    6.8116 H   0  0  0  0  0  0  0  0  0  0  0  0
    3.3028   -5.4849    8.2343 H   0  0  0  0  0  0  0  0  0  0  0  0
    3.3305   -6.9973    7.3564 H   0  0  0  0  0  0  0  0  0  0  0  0
    5.3170   -5.7900    6.8086 H   0  0  0  0  0  0  0  0  0  0  0  0
    3.7583   -3.2368    6.1563 H   0  0  0  0  0  0  0  0  0  0  0  0
    5.5078   -3.4821    6.0777 H   0  0  0  0  0  0  0  0  0  0  0  0
    4.6728   -3.6042    7.6032 H   0  0  0  0  0  0  0  0  0  0  0  0
    4.9423   -6.9696    5.0484 H   0  0  0  0  0  0  0  0  0  0  0  0
    5.0059   -4.2746    3.7230 H   0  0  0  0  0  0  0  0  0  0  0  0
    6.3529   -5.0485    4.5442 H   0  0  0  0  0  0  0  0  0  0  0  0
    6.4553   -5.4068    2.1304 H   0  0  0  0  0  0  0  0  0  0  0  0
    6.3011   -6.9316    2.9725 H   0  0  0  0  0  0  0  0  0  0  0  0
    4.0618   -5.3537    1.6471 H   0  0  0  0  0  0  0  0  0  0  0  0
    5.2528   -8.0225    0.7681 H   0  0  0  0  0  0  0  0  0  0  0  0
    5.7411   -6.4472    0.1352 H   0  0  0  0  0  0  0  0  0  0  0  0
    4.1182   -7.0050   -0.1301 H   0  0  0  0  0  0  0  0  0  0  0  0
    3.9214   -8.0706    2.9955 H   0  0  0  0  0  0  0  0  0  0  0  0
    1.8338   -6.4966    1.4440 H   0  0  0  0  0  0  0  0  0  0  0  0
    2.5523   -7.9942    1.0101 H   0  0  0  0  0  0  0  0  0  0  0  0
    0.3293   -8.2849    1.7046 H   0  0  0  0  0  0  0  0  0  0  0  0
    1.3987   -9.2593    2.6639 H   0  0  0  0  0  0  0  0  0  0  0  0
   -1.3879   -7.9251    4.8758 H   0  0  0  0  0  0  0  0  0  0  0  0
   -0.8058   -9.3882    4.0691 H   0  0  0  0  0  0  0  0  0  0  0  0
   -1.6152   -8.1185    3.1364 H   0  0  0  0  0  0  0  0  0  0  0  0
    2.1100   -4.9549    2.8509 H   0  0  0  0  0  0  0  0  0  0  0  0
    1.2508   -3.1701    5.8214 H   0  0  0  0  0  0  0  0  0  0  0  0
    2.4255   -1.6408    4.0845 H   0  0  0  0  0  0  0  0  0  0  0  0
    1.1969   -2.1221    2.9319 H   0  0  0  0  0  0  0  0  0  0  0  0
    0.2670   -0.0505    2.9211 H   0  0  0  0  0  0  0  0  0  0  0  0
    2.9101    2.4411    3.4715 H   0  0  0  0  0  0  0  0  0  0  0  0
    1.8285    2.8526    1.2790 H   0  0  0  0  0  0  0  0  0  0  0  0
    0.8147    1.4291    1.4415 H   0  0  0  0  0  0  0  0  0  0  0  0
    2.5593    1.2618    1.3474 H   0  0  0  0  0  0  0  0  0  0  0  0
    1.2471    3.2286    4.9581 H   0  0  0  0  0  0  0  0  0  0  0  0
    0.7590    4.2892    2.3632 H   0  0  0  0  0  0  0  0  0  0  0  0
   -1.1135    3.2069    4.6146 H   0  0  0  0  0  0  0  0  0  0  0  0
   -0.6890    3.1438    2.1296 H   0  0  0  0  0  0  0  0  0  0  0  0
   -0.2328    1.1869    5.6782 H   0  0  0  0  0  0  0  0  0  0  0  0
   -2.0631    0.7334    3.5980 H   0  0  0  0  0  0  0  0  0  0  0  0
    0.5983   -5.6825    5.4001 H   0  0  0  0  0  0  0  0  0  0  0  0
  1  2  1  0
  1 35  1  0
  1 36  1  0
  1 37  1  0
  2  3  1  0
  2  4  1  0
  2 38  1  0
  3 39  1  0
  3 40  1  0
  3 41  1  0
  4 16  1  0
  4  5  1  0
  4 42  1  1
  5  6  1  0
  5 43  1  0
  5 44  1  0
  6  7  1  0
  6 45  1  0
  6 46  1  0
  7  8  1  0
  7  9  1  0
  7 47  1  6
  8 48  1  0
  8 49  1  0
  8 50  1  0
  9 16  1  0
  9 10  1  0
  9 51  1  1
 10 11  1  0
 10 52  1  0
 10 53  1  0
 11 12  1  0
 11 54  1  0
 11 55  1  0
 12 34  1  0
 12 13  1  1
 12 14  1  0
 13 56  1  0
 13 57  1  0
 13 58  1  0
 14 15  1  0
 16 15  1  1
 16 17  1  0
 17 33  1  0
 17 18  1  0
 17 59  1  6
 18 19  1  0
 19 20  1  0
 19 32  1  0
 19 60  1  1
 20 21  1  0
 20 61  1  0
 20 62  1  0
 21 22  1  0
 22 30  1  0
 22 23  1  0
 22 63  1  6
 23 24  1  0
 24 25  1  0
 24 26  1  0
 24 64  1  6
 25 65  1  0
 25 66  1  0
 25 67  1  0
 26 27  1  0
 26 28  1  0
 26 68  1  1
 27 69  1  0
 28 29  1  0
 28 30  1  0
 28 70  1  1
 29 71  1  0
 30 31  1  0
 30 72  1  1
 31 73  1  0
 32 33  1  0
 33 34  1  0
 33 74  1  1
M  END
>  <i_m_ct_stereo_status>  (96) 
1

>  <s_m_source_file>  (96) 
/var/tmp/pbs.5076255.sched01/tmp5eg4wc32/41mqp692j8.sdf

>  <i_m_source_file_index>  (96) 
3

>  <i_lp_mmshare_version>  (96) 
48012

>  <i_f3d_flags>  (96) 
0

>  <s_epik_input>  (96) 
W0NIM11bQ0hdKFtDSDNdKVtDQEBIXTFbQ0gyXVtDSDJdW0NAQEhdKFtDSDNdKVtDQEBIXShbQ0BdMTIzKVtDSDJdW0NIMl1bQ0BAXShbQ0gzXSkoT08yKU9bQ0BIXTRbQ0BIXTNPW0NASF0oTzQpW0NIMl1PW0NAQEhdNU9bQ0BASF0oW0NIM10pW0NAQEhdKFtPSF0pW0NAQEhdKFtPSF0pW0NASF01W09IXQ==

>  <s_epik_cmdline>  (96) 
J2VwaWtfcHl0aG9uJywgJy1waHQnLCAnMi4wJywgJy1waCcsICc3LjAnLCAnLXRuJywgJzgnLCAnLW1hJywgJzIwMCcsICctaW1hZScsICc8aW5maWxlLm1hZT4nLCAnLW9tYWUnLCAnPG91dGZpbGUubWFlPic=

>  <r_lp_tautomer_probability>  (96) 
1

>  <r_epik_Ionization_Penalty>  (96) 
2.28547e-06

>  <r_epik_Ionization_Penalty_Charging>  (96) 
0

>  <r_epik_Ionization_Penalty_Neutral>  (96) 
2.28547e-06

>  <r_epik_State_Penalty>  (96) 
-0

>  <r_epik_Charging_Adjusted_Penalty>  (96) 
0

>  <i_epik_Tot_Q>  (96) 
0

>  <i_epik_Tot_abs_Q>  (96) 
0

>  <s_epik_Chemistry_Notes>  (96) 
This compound contains an acetal/aminal-like group ( X-CH(R)-Y where X, Y are N, S, or O) that may be acid/base labile, releasing an aldehyde.

>  <s_lp_Force_Field>  (96) 
OPLS3e

>  <r_lp_Energy>  (96) 
49.2966

>  <b_lp_Chiralities_Consistent>  (96) 
1

>  <s_lp_Variant>  (96) 
30:0-1

>  <s_i_glide_gridfile>  (96) 
pfpi4k_grid

>  <i_i_glide_lignum>  (96) 
3

>  <i_i_glide_rotatable_bonds>  (96) 
7

>  <r_i_docking_score>  (96) 
-2.36807

>  <r_i_glide_ligand_efficiency>  (96) 
-0.0696493

>  <r_i_glide_ligand_efficiency_sa>  (96) 
-0.225637

>  <r_i_glide_ligand_efficiency_ln>  (96) 
-0.523174

>  <r_i_glide_gscore>  (96) 
-2.36807

>  <r_i_glide_lipo>  (96) 
-0.137679

>  <r_i_glide_hbond>  (96) 
-0.0692743

>  <r_i_glide_metal>  (96) 
-0

>  <r_i_glide_rewards>  (96) 
-0.0947288

>  <r_i_glide_evdw>  (96) 
-19.8232

>  <r_i_glide_ecoul>  (96) 
-8.51666

>  <r_i_glide_erotb>  (96) 
0.255602

>  <r_i_glide_esite>  (96) 
-0.0533374

>  <r_i_glide_emodel>  (96) 
-28.7218

>  <r_i_glide_energy>  (96) 
-28.3398

>  <r_i_glide_einternal>  (96) 
4.74661

>  <r_i_glide_intrahb_reward>  (96) 
-0

>  <i_i_glide_confnum>  (96) 
1

>  <i_i_glide_posenum>  (96) 
2

>  <r_i_glide_eff_state_penalty>  (96) 
0

>  <ligand_id>  (96) 
30

>  <original_smiles>  (96) 
CC(C)C1CCC(C)C2CCC3(C)OOC12C1OC(COC2OC(C)C(O)C(O)C2O)OC1O3

>  <smiles>  (96) 
[H]OC1([H])C([H])(OC([H])([H])C2([H])OC3([H])OC4(C([H])([H])[H])OOC5(C3([H])O2)C([H])(C([H])(C([H])([H])[H])C([H])([H])[H])C([H])([H])C([H])([H])C([H])(C([H])([H])[H])C5([H])C([H])([H])C4([H])[H])OC([H])(C([H])([H])[H])C([H])(O[H])C1([H])O[H]

$$$$
31:0:0
     RDKit          3D

 20 21  0  0  1  0  0  0  0  0999 V2000
    3.4811   -7.2421    1.4988 C   0  0  0  0  0  0  0  0  0  0  0  0
    2.6791   -6.1080    0.8802 C   0  0  0  0  0  0  0  0  0  0  0  0
    1.4133   -6.2063    0.9056 N   0  0  0  0  0  0  0  0  0  0  0  0
    3.3998   -4.9566    0.3014 C   0  0  0  0  0  0  0  0  0  0  0  0
    2.7762   -3.8489   -0.0901 N   0  0  0  0  0  0  0  0  0  0  0  0
    3.8079   -3.0788   -0.5896 C   0  0  0  0  0  0  0  0  0  0  0  0
    3.8122   -1.7882   -1.1487 C   0  0  0  0  0  0  0  0  0  0  0  0
    5.0272   -1.2220   -1.5624 C   0  0  0  0  0  0  0  0  0  0  0  0
    6.2121   -1.8562   -1.4540 N   0  0  0  0  0  0  0  0  0  0  0  0
    6.2329   -3.1046   -0.9270 C   0  0  0  0  0  0  0  0  0  0  0  0
    5.0567   -3.7422   -0.4808 C   0  0  0  0  0  0  0  0  0  0  0  0
    4.7360   -4.9620    0.0988 N   0  0  0  0  0  0  0  0  0  0  0  0
    5.3533   -5.7293    0.3180 H   0  0  0  0  0  0  0  0  0  0  0  0
    4.5590   -7.0929    1.4529 H   0  0  0  0  0  0  0  0  0  0  0  0
    3.2507   -8.1785    0.9868 H   0  0  0  0  0  0  0  0  0  0  0  0
    1.0903   -7.0645    1.3350 H   0  0  0  0  0  0  0  0  0  0  0  0
    2.8845   -1.2413   -1.2411 H   0  0  0  0  0  0  0  0  0  0  0  0
    5.0486   -0.2295   -1.9927 H   0  0  0  0  0  0  0  0  0  0  0  0
    7.1939   -3.5827   -0.8569 H   0  0  0  0  0  0  0  0  0  0  0  0
    3.2111   -7.3500    2.5524 H   0  0  0  0  0  0  0  0  0  0  0  0
  1 14  1  0
  1 15  1  0
  1 20  1  0
  1  2  1  0
  2  4  1  0
  2  3  2  0
  3 16  1  0
  4 12  1  0
  4  5  2  0
  5  6  1  0
  6 11  2  0
  6  7  1  0
  7  8  2  0
  7 17  1  0
  8  9  1  0
  8 18  1  0
  9 10  2  0
 10 11  1  0
 10 19  1  0
 11 12  1  0
 12 13  1  0
M  END
>  <i_m_ct_stereo_status>  (97) 
1

>  <s_m_source_file>  (97) 
/var/tmp/pbs.5076255.sched01/tmp5eg4wc32/41mqp692j8.sdf

>  <i_m_source_file_index>  (97) 
4

>  <i_lp_mmshare_version>  (97) 
48012

>  <i_f3d_flags>  (97) 
0

>  <s_epik_input>  (97) 
W0hdL049QyhcW0NIM10pYyhuMSlbbkhdYyhjMTIpW2NIXW5bY0hdW2NIXTI=

>  <s_epik_cmdline>  (97) 
J2VwaWtfcHl0aG9uJywgJy1waHQnLCAnMi4wJywgJy1waCcsICc3LjAnLCAnLXRuJywgJzgnLCAnLW1hJywgJzIwMCcsICctaW1hZScsICc8aW5maWxlLm1hZT4nLCAnLW9tYWUnLCAnPG91dGZpbGUubWFlPic=

>  <r_lp_tautomer_probability>  (97) 
0.499996

>  <r_epik_Ionization_Penalty>  (97) 
0.241355

>  <r_epik_Ionization_Penalty_Charging>  (97) 
0.00864169

>  <r_epik_Ionization_Penalty_Neutral>  (97) 
0.232713

>  <r_epik_State_Penalty>  (97) 
0.410688

>  <r_epik_Charging_Adjusted_Penalty>  (97) 
0.419329

>  <i_epik_Tot_Q>  (97) 
0

>  <i_epik_Tot_abs_Q>  (97) 
0

>  <s_epik_Chemistry_Notes>  (97) 
This compound has an imine and may undergo hydrolysis.

>  <s_lp_Force_Field>  (97) 
OPLS3e

>  <r_lp_Energy>  (97) 
9.35788

>  <b_lp_Chiralities_Consistent>  (97) 
1

>  <s_lp_Variant>  (97) 
31:0-1

>  <s_i_glide_gridfile>  (97) 
pfpi4k_grid

>  <i_i_glide_lignum>  (97) 
4

>  <i_i_glide_rotatable_bonds>  (97) 
1

>  <r_i_docking_score>  (97) 
-4.24912

>  <r_i_glide_ligand_efficiency>  (97) 
-0.354094

>  <r_i_glide_ligand_efficiency_sa>  (97) 
-0.810672

>  <r_i_glide_ligand_efficiency_ln>  (97) 
-1.21929

>  <r_i_glide_gscore>  (97) 
-4.24912

>  <r_i_glide_lipo>  (97) 
-0.189213

>  <r_i_glide_hbond>  (97) 
-0.253343

>  <r_i_glide_metal>  (97) 
-0

>  <r_i_glide_rewards>  (97) 
-2.25

>  <r_i_glide_evdw>  (97) 
-15.4306

>  <r_i_glide_ecoul>  (97) 
-5.01292

>  <r_i_glide_erotb>  (97) 
0

>  <r_i_glide_esite>  (97) 
-0.0331011

>  <r_i_glide_emodel>  (97) 
-27.0029

>  <r_i_glide_energy>  (97) 
-20.4435

>  <r_i_glide_einternal>  (97) 
0.162388

>  <r_i_glide_intrahb_reward>  (97) 
-0

>  <i_i_glide_confnum>  (97) 
1

>  <i_i_glide_posenum>  (97) 
1

>  <r_i_glide_eff_state_penalty>  (97) 
0

>  <ligand_id>  (97) 
31

>  <original_smiles>  (97) 
CC(=N)c1nc2ccncc2[nH]1

>  <smiles>  (97) 
[H]N=C(c1nc2c([H])c([H])nc([H])c2n1[H])C([H])([H])[H]

$$$$
31:0:1
     RDKit          3D

 20 21  0  0  1  0  0  0  0  0999 V2000
    4.1745   -5.6595    2.2240 C   0  0  0  0  0  0  0  0  0  0  0  0
    2.9871   -5.2684    1.3544 C   0  0  0  0  0  0  0  0  0  0  0  0
    1.8335   -5.6310    1.7426 N   0  0  0  0  0  0  0  0  0  0  0  0
    3.2161   -4.4839    0.1288 C   0  0  0  0  0  0  0  0  0  0  0  0
    2.2133   -4.0350   -0.6208 N   0  0  0  0  0  0  0  0  0  0  0  0
    2.8687   -3.3951   -1.6517 C   0  0  0  0  0  0  0  0  0  0  0  0
    2.3772   -2.7328   -2.7939 C   0  0  0  0  0  0  0  0  0  0  0  0
    3.2818   -2.1422   -3.6901 C   0  0  0  0  0  0  0  0  0  0  0  0
    4.6180   -2.2036   -3.5250 N   0  0  0  0  0  0  0  0  0  0  0  0
    5.1162   -2.8560   -2.4479 C   0  0  0  0  0  0  0  0  0  0  0  0
    4.2787   -3.4549   -1.4913 C   0  0  0  0  0  0  0  0  0  0  0  0
    4.4527   -4.1736   -0.3170 N   0  0  0  0  0  0  0  0  0  0  0  0
    5.3150   -4.4480    0.1298 H   0  0  0  0  0  0  0  0  0  0  0  0
    5.1285   -5.3134    1.8322 H   0  0  0  0  0  0  0  0  0  0  0  0
    4.2233   -6.7462    2.3159 H   0  0  0  0  0  0  0  0  0  0  0  0
    1.8403   -6.1527    2.6091 H   0  0  0  0  0  0  0  0  0  0  0  0
    1.3130   -2.6728   -2.9537 H   0  0  0  0  0  0  0  0  0  0  0  0
    2.9225   -1.6120   -4.5595 H   0  0  0  0  0  0  0  0  0  0  0  0
    6.1876   -2.8971   -2.3565 H   0  0  0  0  0  0  0  0  0  0  0  0
    4.0532   -5.2340    3.2218 H   0  0  0  0  0  0  0  0  0  0  0  0
  1 14  1  0
  1 15  1  0
  1 20  1  0
  1  2  1  0
  2  4  1  0
  2  3  2  0
  3 16  1  0
  4 12  1  0
  4  5  2  0
  5  6  1  0
  6 11  2  0
  6  7  1  0
  7  8  2  0
  7 17  1  0
  8  9  1  0
  8 18  1  0
  9 10  2  0
 10 11  1  0
 10 19  1  0
 11 12  1  0
 12 13  1  0
M  END
>  <i_m_ct_stereo_status>  (98) 
1

>  <s_m_source_file>  (98) 
/var/tmp/pbs.5076255.sched01/tmp5eg4wc32/41mqp692j8.sdf

>  <i_m_source_file_index>  (98) 
4

>  <i_lp_mmshare_version>  (98) 
48012

>  <i_f3d_flags>  (98) 
0

>  <s_epik_input>  (98) 
W0hdL049QyhcW0NIM10pYyhuMSlbbkhdYyhjMTIpW2NIXW5bY0hdW2NIXTI=

>  <s_epik_cmdline>  (98) 
J2VwaWtfcHl0aG9uJywgJy1waHQnLCAnMi4wJywgJy1waCcsICc3LjAnLCAnLXRuJywgJzgnLCAnLW1hJywgJzIwMCcsICctaW1hZScsICc8aW5maWxlLm1hZT4nLCAnLW9tYWUnLCAnPG91dGZpbGUubWFlPic=

>  <r_lp_tautomer_probability>  (98) 
0.499996

>  <r_epik_Ionization_Penalty>  (98) 
0.241355

>  <r_epik_Ionization_Penalty_Charging>  (98) 
0.00864169

>  <r_epik_Ionization_Penalty_Neutral>  (98) 
0.232713

>  <r_epik_State_Penalty>  (98) 
0.410688

>  <r_epik_Charging_Adjusted_Penalty>  (98) 
0.419329

>  <i_epik_Tot_Q>  (98) 
0

>  <i_epik_Tot_abs_Q>  (98) 
0

>  <s_epik_Chemistry_Notes>  (98) 
This compound has an imine and may undergo hydrolysis.

>  <s_lp_Force_Field>  (98) 
OPLS3e

>  <r_lp_Energy>  (98) 
9.35788

>  <b_lp_Chiralities_Consistent>  (98) 
1

>  <s_lp_Variant>  (98) 
31:0-1

>  <s_i_glide_gridfile>  (98) 
pfpi4k_grid

>  <i_i_glide_lignum>  (98) 
4

>  <i_i_glide_rotatable_bonds>  (98) 
1

>  <r_i_docking_score>  (98) 
-3.99544

>  <r_i_glide_ligand_efficiency>  (98) 
-0.332953

>  <r_i_glide_ligand_efficiency_sa>  (98) 
-0.762273

>  <r_i_glide_ligand_efficiency_ln>  (98) 
-1.1465

>  <r_i_glide_gscore>  (98) 
-3.99544

>  <r_i_glide_lipo>  (98) 
-0.508926

>  <r_i_glide_hbond>  (98) 
-0.0163353

>  <r_i_glide_metal>  (98) 
-0

>  <r_i_glide_rewards>  (98) 
-2.25

>  <r_i_glide_evdw>  (98) 
-16.0642

>  <r_i_glide_ecoul>  (98) 
-2.58045

>  <r_i_glide_erotb>  (98) 
0

>  <r_i_glide_esite>  (98) 
-0.0299026

>  <r_i_glide_emodel>  (98) 
-24.8277

>  <r_i_glide_energy>  (98) 
-18.6447

>  <r_i_glide_einternal>  (98) 
0.0944493

>  <r_i_glide_intrahb_reward>  (98) 
-0

>  <i_i_glide_confnum>  (98) 
1

>  <i_i_glide_posenum>  (98) 
18

>  <r_i_glide_eff_state_penalty>  (98) 
0

>  <ligand_id>  (98) 
31

>  <original_smiles>  (98) 
CC(=N)c1nc2ccncc2[nH]1

>  <smiles>  (98) 
[H]N=C(c1nc2c([H])c([H])nc([H])c2n1[H])C([H])([H])[H]

$$$$
31:0:2
     RDKit          3D

 20 21  0  0  1  0  0  0  0  0999 V2000
    3.8216   -3.4405    3.0819 C   0  0  0  0  0  0  0  0  0  0  0  0
    3.0084   -3.9874    1.9198 C   0  0  0  0  0  0  0  0  0  0  0  0
    2.2201   -4.9488    2.1633 N   0  0  0  0  0  0  0  0  0  0  0  0
    3.1636   -3.3924    0.5804 C   0  0  0  0  0  0  0  0  0  0  0  0
    2.5356   -3.8724   -0.4895 N   0  0  0  0  0  0  0  0  0  0  0  0
    2.9674   -3.0367   -1.4989 C   0  0  0  0  0  0  0  0  0  0  0  0
    2.6732   -3.0223   -2.8743 C   0  0  0  0  0  0  0  0  0  0  0  0
    3.2457   -2.0164   -3.6730 C   0  0  0  0  0  0  0  0  0  0  0  0
    4.0875   -1.0719   -3.2034 N   0  0  0  0  0  0  0  0  0  0  0  0
    4.3762   -1.0683   -1.8823 C   0  0  0  0  0  0  0  0  0  0  0  0
    3.8482   -2.0378   -1.0081 C   0  0  0  0  0  0  0  0  0  0  0  0
    3.9484   -2.3150    0.3497 N   0  0  0  0  0  0  0  0  0  0  0  0
    4.4656   -1.8114    1.0512 H   0  0  0  0  0  0  0  0  0  0  0  0
    4.4832   -2.6199    2.8056 H   0  0  0  0  0  0  0  0  0  0  0  0
    4.4390   -4.2366    3.5056 H   0  0  0  0  0  0  0  0  0  0  0  0
    2.2328   -5.2639    3.1239 H   0  0  0  0  0  0  0  0  0  0  0  0
    2.0052   -3.7630   -3.2869 H   0  0  0  0  0  0  0  0  0  0  0  0
    3.0158   -1.9709   -4.7249 H   0  0  0  0  0  0  0  0  0  0  0  0
    5.0252   -0.2843   -1.5307 H   0  0  0  0  0  0  0  0  0  0  0  0
    3.1447   -3.0804    3.8591 H   0  0  0  0  0  0  0  0  0  0  0  0
  1 14  1  0
  1 15  1  0
  1 20  1  0
  1  2  1  0
  2  4  1  0
  2  3  2  0
  3 16  1  0
  4 12  1  0
  4  5  2  0
  5  6  1  0
  6 11  2  0
  6  7  1  0
  7  8  2  0
  7 17  1  0
  8  9  1  0
  8 18  1  0
  9 10  2  0
 10 11  1  0
 10 19  1  0
 11 12  1  0
 12 13  1  0
M  END
>  <i_m_ct_stereo_status>  (99) 
1

>  <s_m_source_file>  (99) 
/var/tmp/pbs.5076255.sched01/tmp5eg4wc32/41mqp692j8.sdf

>  <i_m_source_file_index>  (99) 
4

>  <i_lp_mmshare_version>  (99) 
48012

>  <i_f3d_flags>  (99) 
0

>  <s_epik_input>  (99) 
W0hdL049QyhcW0NIM10pYyhuMSlbbkhdYyhjMTIpW2NIXW5bY0hdW2NIXTI=

>  <s_epik_cmdline>  (99) 
J2VwaWtfcHl0aG9uJywgJy1waHQnLCAnMi4wJywgJy1waCcsICc3LjAnLCAnLXRuJywgJzgnLCAnLW1hJywgJzIwMCcsICctaW1hZScsICc8aW5maWxlLm1hZT4nLCAnLW9tYWUnLCAnPG91dGZpbGUubWFlPic=

>  <r_lp_tautomer_probability>  (99) 
0.499996

>  <r_epik_Ionization_Penalty>  (99) 
0.241355

>  <r_epik_Ionization_Penalty_Charging>  (99) 
0.00864169

>  <r_epik_Ionization_Penalty_Neutral>  (99) 
0.232713

>  <r_epik_State_Penalty>  (99) 
0.410688

>  <r_epik_Charging_Adjusted_Penalty>  (99) 
0.419329

>  <i_epik_Tot_Q>  (99) 
0

>  <i_epik_Tot_abs_Q>  (99) 
0

>  <s_epik_Chemistry_Notes>  (99) 
This compound has an imine and may undergo hydrolysis.

>  <s_lp_Force_Field>  (99) 
OPLS3e

>  <r_lp_Energy>  (99) 
9.35788

>  <b_lp_Chiralities_Consistent>  (99) 
1

>  <s_lp_Variant>  (99) 
31:0-1

>  <s_i_glide_gridfile>  (99) 
pfpi4k_grid

>  <i_i_glide_lignum>  (99) 
4

>  <i_i_glide_rotatable_bonds>  (99) 
1

>  <r_i_docking_score>  (99) 
-3.6794

>  <r_i_glide_ligand_efficiency>  (99) 
-0.306617

>  <r_i_glide_ligand_efficiency_sa>  (99) 
-0.701977

>  <r_i_glide_ligand_efficiency_ln>  (99) 
-1.05581

>  <r_i_glide_gscore>  (99) 
-3.6794

>  <r_i_glide_lipo>  (99) 
-0.272777

>  <r_i_glide_hbond>  (99) 
0

>  <r_i_glide_metal>  (99) 
-0

>  <r_i_glide_rewards>  (99) 
-2.25

>  <r_i_glide_evdw>  (99) 
-17.6168

>  <r_i_glide_ecoul>  (99) 
-1.65856

>  <r_i_glide_erotb>  (99) 
0

>  <r_i_glide_esite>  (99) 
-0.0269948

>  <r_i_glide_emodel>  (99) 
-24.9436

>  <r_i_glide_energy>  (99) 
-19.2754

>  <r_i_glide_einternal>  (99) 
0.109085

>  <r_i_glide_intrahb_reward>  (99) 
-0

>  <i_i_glide_confnum>  (99) 
2

>  <i_i_glide_posenum>  (99) 
4

>  <r_i_glide_eff_state_penalty>  (99) 
0

>  <ligand_id>  (99) 
31

>  <original_smiles>  (99) 
CC(=N)c1nc2ccncc2[nH]1

>  <smiles>  (99) 
[H]N=C(c1nc2c([H])c([H])nc([H])c2n1[H])C([H])([H])[H]

$$$$
31:1:0
     RDKit          3D

 20 21  0  0  1  0  0  0  0  0999 V2000
    5.3655   -0.3683    2.2417 C   0  0  0  0  0  0  0  0  0  0  0  0
    4.4042   -1.4423    1.7735 C   0  0  0  0  0  0  0  0  0  0  0  0
    3.9040   -2.1975    2.6504 N   0  0  0  0  0  0  0  0  0  0  0  0
    4.1181   -1.5880    0.3355 C   0  0  0  0  0  0  0  0  0  0  0  0
    3.4429   -2.6312   -0.1479 N   0  0  0  0  0  0  0  0  0  0  0  0
    3.3862   -2.3450   -1.4999 C   0  0  0  0  0  0  0  0  0  0  0  0
    2.7983   -3.0466   -2.5706 C   0  0  0  0  0  0  0  0  0  0  0  0
    2.9046   -2.5167   -3.8695 C   0  0  0  0  0  0  0  0  0  0  0  0
    3.5454   -1.3613   -4.1505 N   0  0  0  0  0  0  0  0  0  0  0  0
    4.0853   -0.6583   -3.1303 C   0  0  0  0  0  0  0  0  0  0  0  0
    4.0484   -1.1265   -1.8066 C   0  0  0  0  0  0  0  0  0  0  0  0
    4.5098   -0.6708   -0.5778 N   0  0  0  0  0  0  0  0  0  0  0  0
    4.9792    0.2051   -0.3773 H   0  0  0  0  0  0  0  0  0  0  0  0
    5.7705    0.2163    1.4184 H   0  0  0  0  0  0  0  0  0  0  0  0
    6.2069   -0.8327    2.7606 H   0  0  0  0  0  0  0  0  0  0  0  0
    3.2985   -2.8755    2.2076 H   0  0  0  0  0  0  0  0  0  0  0  0
    2.2641   -3.9671   -2.3978 H   0  0  0  0  0  0  0  0  0  0  0  0
    2.4587   -3.0428   -4.7032 H   0  0  0  0  0  0  0  0  0  0  0  0
    4.5567    0.2788   -3.3770 H   0  0  0  0  0  0  0  0  0  0  0  0
    4.8576    0.2991    2.9426 H   0  0  0  0  0  0  0  0  0  0  0  0
  1 14  1  0
  1 15  1  0
  1 20  1  0
  1  2  1  0
  2  4  1  0
  2  3  2  0
  3 16  1  0
  4 12  1  0
  4  5  2  0
  5  6  1  0
  6 11  2  0
  6  7  1  0
  7  8  2  0
  7 17  1  0
  8  9  1  0
  8 18  1  0
  9 10  2  0
 10 11  1  0
 10 19  1  0
 11 12  1  0
 12 13  1  0
M  END
>  <i_m_ct_stereo_status>  (100) 
1

>  <s_m_source_file>  (100) 
/var/tmp/pbs.5076255.sched01/tmp5eg4wc32/41mqp692j8.sdf

>  <i_m_source_file_index>  (100) 
5

>  <i_lp_mmshare_version>  (100) 
48012

>  <i_f3d_flags>  (100) 
0

>  <s_epik_input>  (100) 
W0hdL049QyhcW0NIM10pYyhuMSlbbkhdYyhjMTIpW2NIXW5bY0hdW2NIXTI=

>  <s_epik_cmdline>  (100) 
J2VwaWtfcHl0aG9uJywgJy1waHQnLCAnMi4wJywgJy1waCcsICc3LjAnLCAnLXRuJywgJzgnLCAnLW1hJywgJzIwMCcsICctaW1hZScsICc8aW5maWxlLm1hZT4nLCAnLW9tYWUnLCAnPG91dGZpbGUubWFlPic=

>  <r_lp_tautomer_probability>  (100) 
0.499996

>  <r_epik_Ionization_Penalty>  (100) 
0.241355

>  <r_epik_Ionization_Penalty_Charging>  (100) 
0.00864169

>  <r_epik_Ionization_Penalty_Neutral>  (100) 
0.232713

>  <r_epik_State_Penalty>  (100) 
0.410688

>  <r_epik_Charging_Adjusted_Penalty>  (100) 
0.419329

>  <i_epik_Tot_Q>  (100) 
0

>  <i_epik_Tot_abs_Q>  (100) 
0

>  <s_epik_Chemistry_Notes>  (100) 
This compound has an imine and may undergo hydrolysis.

>  <s_lp_Force_Field>  (100) 
OPLS3e

>  <r_lp_Energy>  (100) 
13.3762

>  <b_lp_Chiralities_Consistent>  (100) 
1

>  <s_lp_Variant>  (100) 
31:0-2

>  <s_i_glide_gridfile>  (100) 
pfpi4k_grid

>  <i_i_glide_lignum>  (100) 
5

>  <i_i_glide_rotatable_bonds>  (100) 
1

>  <r_i_docking_score>  (100) 
-4.73161

>  <r_i_glide_ligand_efficiency>  (100) 
-0.394301

>  <r_i_glide_ligand_efficiency_sa>  (100) 
-0.902724

>  <r_i_glide_ligand_efficiency_ln>  (100) 
-1.35774

>  <r_i_glide_gscore>  (100) 
-4.73161

>  <r_i_glide_lipo>  (100) 
-0.43431

>  <r_i_glide_hbond>  (100) 
-0.361913

>  <r_i_glide_metal>  (100) 
-0

>  <r_i_glide_rewards>  (100) 
-2.27446

>  <r_i_glide_evdw>  (100) 
-18.8468

>  <r_i_glide_ecoul>  (100) 
-4.41738

>  <r_i_glide_erotb>  (100) 
0

>  <r_i_glide_esite>  (100) 
-0.0559815

>  <r_i_glide_emodel>  (100) 
-31.2233

>  <r_i_glide_energy>  (100) 
-23.2642

>  <r_i_glide_einternal>  (100) 
0.15656

>  <r_i_glide_intrahb_reward>  (100) 
-0

>  <i_i_glide_confnum>  (100) 
1

>  <i_i_glide_posenum>  (100) 
9

>  <r_i_glide_eff_state_penalty>  (100) 
0

>  <ligand_id>  (100) 
31

>  <original_smiles>  (100) 
CC(=N)c1nc2ccncc2[nH]1

>  <smiles>  (100) 
[H]N=C(c1nc2c([H])c([H])nc([H])c2n1[H])C([H])([H])[H]

$$$$
31:1:1
     RDKit          3D

 20 21  0  0  1  0  0  0  0  0999 V2000
    1.2077    0.5804    4.2443 C   0  0  0  0  0  0  0  0  0  0  0  0
    1.2728    0.3083    2.7461 C   0  0  0  0  0  0  0  0  0  0  0  0
    0.2151    0.4799    2.0769 N   0  0  0  0  0  0  0  0  0  0  0  0
    2.5591   -0.1460    2.1863 C   0  0  0  0  0  0  0  0  0  0  0  0
    3.7086   -0.1947    2.8582 N   0  0  0  0  0  0  0  0  0  0  0  0
    4.5771   -0.6920    1.9048 C   0  0  0  0  0  0  0  0  0  0  0  0
    5.9527   -0.9736    1.9703 C   0  0  0  0  0  0  0  0  0  0  0  0
    6.6086   -1.4718    0.8280 C   0  0  0  0  0  0  0  0  0  0  0  0
    5.9822   -1.7041   -0.3467 N   0  0  0  0  0  0  0  0  0  0  0  0
    4.6524   -1.4597   -0.4236 C   0  0  0  0  0  0  0  0  0  0  0  0
    3.9273   -0.9418    0.6704 C   0  0  0  0  0  0  0  0  0  0  0  0
    2.6166   -0.5686    0.9010 N   0  0  0  0  0  0  0  0  0  0  0  0
    1.8351   -0.6551    0.2360 H   0  0  0  0  0  0  0  0  0  0  0  0
    2.1520    0.3932    4.7533 H   0  0  0  0  0  0  0  0  0  0  0  0
    0.4535   -0.0547    4.7148 H   0  0  0  0  0  0  0  0  0  0  0  0
    0.3296    0.3059    1.0869 H   0  0  0  0  0  0  0  0  0  0  0  0
    6.4923   -0.7599    2.8781 H   0  0  0  0  0  0  0  0  0  0  0  0
    7.6696   -1.6729    0.8612 H   0  0  0  0  0  0  0  0  0  0  0  0
    4.1733   -1.6796   -1.3577 H   0  0  0  0  0  0  0  0  0  0  0  0
    0.9401    1.6237    4.4245 H   0  0  0  0  0  0  0  0  0  0  0  0
  1 14  1  0
  1 15  1  0
  1 20  1  0
  1  2  1  0
  2  4  1  0
  2  3  2  0
  3 16  1  0
  4 12  1  0
  4  5  2  0
  5  6  1  0
  6 11  2  0
  6  7  1  0
  7  8  2  0
  7 17  1  0
  8  9  1  0
  8 18  1  0
  9 10  2  0
 10 11  1  0
 10 19  1  0
 11 12  1  0
 12 13  1  0
M  END
>  <i_m_ct_stereo_status>  (101) 
1

>  <s_m_source_file>  (101) 
/var/tmp/pbs.5076255.sched01/tmp5eg4wc32/41mqp692j8.sdf

>  <i_m_source_file_index>  (101) 
5

>  <i_lp_mmshare_version>  (101) 
48012

>  <i_f3d_flags>  (101) 
0

>  <s_epik_input>  (101) 
W0hdL049QyhcW0NIM10pYyhuMSlbbkhdYyhjMTIpW2NIXW5bY0hdW2NIXTI=

>  <s_epik_cmdline>  (101) 
J2VwaWtfcHl0aG9uJywgJy1waHQnLCAnMi4wJywgJy1waCcsICc3LjAnLCAnLXRuJywgJzgnLCAnLW1hJywgJzIwMCcsICctaW1hZScsICc8aW5maWxlLm1hZT4nLCAnLW9tYWUnLCAnPG91dGZpbGUubWFlPic=

>  <r_lp_tautomer_probability>  (101) 
0.499996

>  <r_epik_Ionization_Penalty>  (101) 
0.241355

>  <r_epik_Ionization_Penalty_Charging>  (101) 
0.00864169

>  <r_epik_Ionization_Penalty_Neutral>  (101) 
0.232713

>  <r_epik_State_Penalty>  (101) 
0.410688

>  <r_epik_Charging_Adjusted_Penalty>  (101) 
0.419329

>  <i_epik_Tot_Q>  (101) 
0

>  <i_epik_Tot_abs_Q>  (101) 
0

>  <s_epik_Chemistry_Notes>  (101) 
This compound has an imine and may undergo hydrolysis.

>  <s_lp_Force_Field>  (101) 
OPLS3e

>  <r_lp_Energy>  (101) 
13.3762

>  <b_lp_Chiralities_Consistent>  (101) 
1

>  <s_lp_Variant>  (101) 
31:0-2

>  <s_i_glide_gridfile>  (101) 
pfpi4k_grid

>  <i_i_glide_lignum>  (101) 
5

>  <i_i_glide_rotatable_bonds>  (101) 
1

>  <r_i_docking_score>  (101) 
-4.55774

>  <r_i_glide_ligand_efficiency>  (101) 
-0.379812

>  <r_i_glide_ligand_efficiency_sa>  (101) 
-0.869552

>  <r_i_glide_ligand_efficiency_ln>  (101) 
-1.30785

>  <r_i_glide_gscore>  (101) 
-4.55774

>  <r_i_glide_lipo>  (101) 
-0.225747

>  <r_i_glide_hbond>  (101) 
-0.242297

>  <r_i_glide_metal>  (101) 
-0

>  <r_i_glide_rewards>  (101) 
-2.25

>  <r_i_glide_evdw>  (101) 
-12.3614

>  <r_i_glide_ecoul>  (101) 
-7.38181

>  <r_i_glide_erotb>  (101) 
0

>  <r_i_glide_esite>  (101) 
-0.114354

>  <r_i_glide_emodel>  (101) 
-27.547

>  <r_i_glide_energy>  (101) 
-19.7432

>  <r_i_glide_einternal>  (101) 
0.0780507

>  <r_i_glide_intrahb_reward>  (101) 
-0

>  <i_i_glide_confnum>  (101) 
1

>  <i_i_glide_posenum>  (101) 
2

>  <r_i_glide_eff_state_penalty>  (101) 
0

>  <ligand_id>  (101) 
31

>  <original_smiles>  (101) 
CC(=N)c1nc2ccncc2[nH]1

>  <smiles>  (101) 
[H]N=C(c1nc2c([H])c([H])nc([H])c2n1[H])C([H])([H])[H]

$$$$
31:1:2
     RDKit          3D

 20 21  0  0  1  0  0  0  0  0999 V2000
   -2.6522    3.2329    4.9980 C   0  0  0  0  0  0  0  0  0  0  0  0
   -1.7385    3.2906    3.7840 C   0  0  0  0  0  0  0  0  0  0  0  0
   -1.7875    4.3425    3.0824 N   0  0  0  0  0  0  0  0  0  0  0  0
   -0.8715    2.1254    3.5319 C   0  0  0  0  0  0  0  0  0  0  0  0
   -0.8250    1.0274    4.2923 N   0  0  0  0  0  0  0  0  0  0  0  0
    0.1521    0.2746    3.6652 C   0  0  0  0  0  0  0  0  0  0  0  0
    0.6662   -0.9995    3.9725 C   0  0  0  0  0  0  0  0  0  0  0  0
    1.6833   -1.5317    3.1520 C   0  0  0  0  0  0  0  0  0  0  0  0
    2.2019   -0.8797    2.0931 N   0  0  0  0  0  0  0  0  0  0  0  0
    1.7080    0.3411    1.7764 C   0  0  0  0  0  0  0  0  0  0  0  0
    0.6871    0.9427    2.5348 C   0  0  0  0  0  0  0  0  0  0  0  0
   -0.0158    2.1373    2.4861 N   0  0  0  0  0  0  0  0  0  0  0  0
    0.1010    2.9015    1.8188 H   0  0  0  0  0  0  0  0  0  0  0  0
   -2.5425    2.3136    5.5751 H   0  0  0  0  0  0  0  0  0  0  0  0
   -3.6948    3.2890    4.6803 H   0  0  0  0  0  0  0  0  0  0  0  0
   -1.1588    4.3015    2.2796 H   0  0  0  0  0  0  0  0  0  0  0  0
    0.2872   -1.5482    4.8188 H   0  0  0  0  0  0  0  0  0  0  0  0
    2.0895   -2.5147    3.3560 H   0  0  0  0  0  0  0  0  0  0  0  0
    2.1226    0.8161    0.9058 H   0  0  0  0  0  0  0  0  0  0  0  0
   -2.4376    4.0678    5.6686 H   0  0  0  0  0  0  0  0  0  0  0  0
  1 14  1  0
  1 15  1  0
  1 20  1  0
  1  2  1  0
  2  4  1  0
  2  3  2  0
  3 16  1  0
  4 12  1  0
  4  5  2  0
  5  6  1  0
  6 11  2  0
  6  7  1  0
  7  8  2  0
  7 17  1  0
  8  9  1  0
  8 18  1  0
  9 10  2  0
 10 11  1  0
 10 19  1  0
 11 12  1  0
 12 13  1  0
M  END
>  <i_m_ct_stereo_status>  (102) 
1

>  <s_m_source_file>  (102) 
/var/tmp/pbs.5076255.sched01/tmp5eg4wc32/41mqp692j8.sdf

>  <i_m_source_file_index>  (102) 
5

>  <i_lp_mmshare_version>  (102) 
48012

>  <i_f3d_flags>  (102) 
0

>  <s_epik_input>  (102) 
W0hdL049QyhcW0NIM10pYyhuMSlbbkhdYyhjMTIpW2NIXW5bY0hdW2NIXTI=

>  <s_epik_cmdline>  (102) 
J2VwaWtfcHl0aG9uJywgJy1waHQnLCAnMi4wJywgJy1waCcsICc3LjAnLCAnLXRuJywgJzgnLCAnLW1hJywgJzIwMCcsICctaW1hZScsICc8aW5maWxlLm1hZT4nLCAnLW9tYWUnLCAnPG91dGZpbGUubWFlPic=

>  <r_lp_tautomer_probability>  (102) 
0.499996

>  <r_epik_Ionization_Penalty>  (102) 
0.241355

>  <r_epik_Ionization_Penalty_Charging>  (102) 
0.00864169

>  <r_epik_Ionization_Penalty_Neutral>  (102) 
0.232713

>  <r_epik_State_Penalty>  (102) 
0.410688

>  <r_epik_Charging_Adjusted_Penalty>  (102) 
0.419329

>  <i_epik_Tot_Q>  (102) 
0

>  <i_epik_Tot_abs_Q>  (102) 
0

>  <s_epik_Chemistry_Notes>  (102) 
This compound has an imine and may undergo hydrolysis.

>  <s_lp_Force_Field>  (102) 
OPLS3e

>  <r_lp_Energy>  (102) 
13.3762

>  <b_lp_Chiralities_Consistent>  (102) 
1

>  <s_lp_Variant>  (102) 
31:0-2

>  <s_i_glide_gridfile>  (102) 
pfpi4k_grid

>  <i_i_glide_lignum>  (102) 
5

>  <i_i_glide_rotatable_bonds>  (102) 
1

>  <r_i_docking_score>  (102) 
-4.4984

>  <r_i_glide_ligand_efficiency>  (102) 
-0.374867

>  <r_i_glide_ligand_efficiency_sa>  (102) 
-0.85823

>  <r_i_glide_ligand_efficiency_ln>  (102) 
-1.29082

>  <r_i_glide_gscore>  (102) 
-4.4984

>  <r_i_glide_lipo>  (102) 
0

>  <r_i_glide_hbond>  (102) 
-0.377236

>  <r_i_glide_metal>  (102) 
-0

>  <r_i_glide_rewards>  (102) 
-2.25

>  <r_i_glide_evdw>  (102) 
-14.8881

>  <r_i_glide_ecoul>  (102) 
-6.22615

>  <r_i_glide_erotb>  (102) 
0

>  <r_i_glide_esite>  (102) 
-0.192833

>  <r_i_glide_emodel>  (102) 
-28.855

>  <r_i_glide_energy>  (102) 
-21.1143

>  <r_i_glide_einternal>  (102) 
0.00291496

>  <r_i_glide_intrahb_reward>  (102) 
-0

>  <i_i_glide_confnum>  (102) 
1

>  <i_i_glide_posenum>  (102) 
32

>  <r_i_glide_eff_state_penalty>  (102) 
0

>  <ligand_id>  (102) 
31

>  <original_smiles>  (102) 
CC(=N)c1nc2ccncc2[nH]1

>  <smiles>  (102) 
[H]N=C(c1nc2c([H])c([H])nc([H])c2n1[H])C([H])([H])[H]

$$$$
32:0:0
     RDKit          3D

 31 33  0  0  1  0  0  0  0  0999 V2000
    0.7715    1.1933    1.8376 C   0  0  0  0  0  0  0  0  0  0  0  0
    1.8844    0.2302    1.7035 N   0  0  2  0  0  0  0  0  0  0  0  0
    1.5353   -1.1115    2.2242 C   0  0  0  0  0  0  0  0  0  0  0  0
    2.7000   -2.1021    2.0167 C   0  0  0  0  0  0  0  0  0  0  0  0
    3.8869   -1.5986    2.7151 N   0  0  0  0  0  0  0  0  0  0  0  0
    5.0161   -2.5385    2.6990 C   0  0  0  0  0  0  0  0  0  0  0  0
    5.7137   -2.6209    1.3771 C   0  0  0  0  0  0  0  0  0  0  0  0
    6.4975   -3.5640    0.7738 C   0  0  0  0  0  0  0  0  0  0  0  0
    6.8449   -2.9654   -0.4732 C   0  0  0  0  0  0  0  0  0  0  0  0
    6.3234   -1.7575   -0.6268 N   0  0  0  0  0  0  0  0  0  0  0  0
    5.6366   -1.5544    0.5155 N   0  0  0  0  0  0  0  0  0  0  0  0
    4.8400   -0.3615    0.7238 C   0  0  0  0  0  0  0  0  0  0  0  0
    4.2958   -0.2861    2.1798 C   0  0  1  0  0  0  0  0  0  0  0  0
    3.1327    0.7189    2.3459 C   0  0  0  0  0  0  0  0  0  0  0  0
    0.5115    1.3468    2.8861 H   0  0  0  0  0  0  0  0  0  0  0  0
   -0.1155    0.8396    1.3102 H   0  0  0  0  0  0  0  0  0  0  0  0
    1.0443    2.1589    1.4125 H   0  0  0  0  0  0  0  0  0  0  0  0
    1.2789   -1.0491    3.2832 H   0  0  0  0  0  0  0  0  0  0  0  0
    0.6494   -1.4662    1.6998 H   0  0  0  0  0  0  0  0  0  0  0  0
    2.4215   -3.0710    2.4364 H   0  0  0  0  0  0  0  0  0  0  0  0
    2.8947   -2.2592    0.9535 H   0  0  0  0  0  0  0  0  0  0  0  0
    5.7328   -2.1986    3.4475 H   0  0  0  0  0  0  0  0  0  0  0  0
    4.6885   -3.5269    3.0200 H   0  0  0  0  0  0  0  0  0  0  0  0
    6.7785   -4.5347    1.1563 H   0  0  0  0  0  0  0  0  0  0  0  0
    7.4503   -3.3659   -1.2738 H   0  0  0  0  0  0  0  0  0  0  0  0
    5.4497    0.5142    0.5032 H   0  0  0  0  0  0  0  0  0  0  0  0
    4.0233   -0.3823    0.0017 H   0  0  0  0  0  0  0  0  0  0  0  0
    5.1128    0.0574    2.8169 H   0  0  0  0  0  0  0  0  0  0  0  0
    3.4123    1.6827    1.9218 H   0  0  0  0  0  0  0  0  0  0  0  0
    2.9508    0.8921    3.4088 H   0  0  0  0  0  0  0  0  0  0  0  0
    2.0460    0.1066    0.7111 H   0  0  0  0  0  0  0  0  0  0  0  0
  1  2  1  0
  1 15  1  0
  1 16  1  0
  1 17  1  0
  2 14  1  0
  2  3  1  0
  2 31  1  6
  3  4  1  0
  3 18  1  0
  3 19  1  0
  4  5  1  0
  4 20  1  0
  4 21  1  0
  5 13  1  0
  5  6  1  0
  6  7  1  0
  6 22  1  0
  6 23  1  0
  7 11  1  0
  7  8  2  0
  8  9  1  0
  8 24  1  0
  9 10  2  0
  9 25  1  0
 10 11  1  0
 11 12  1  0
 12 13  1  0
 12 26  1  0
 12 27  1  0
 13 14  1  0
 13 28  1  1
 14 29  1  0
 14 30  1  0
M  CHG  1   2   1
M  END
>  <i_m_ct_stereo_status>  (103) 
1

>  <s_m_source_file>  (103) 
/var/tmp/pbs.5076255.sched01/tmp5eg4wc32/41mqp692j8.sdf

>  <i_m_source_file_index>  (103) 
6

>  <i_lp_mmshare_version>  (103) 
48012

>  <i_f3d_flags>  (103) 
0

>  <s_epik_input>  (103) 
W0NIMl0xW0NIMl1OKFtDSDNdKVtDSDJdW0NAQEhdKE4xMilbQ0gyXW4zYyhbQ0gyXTIpW2NIXVtjSF1uMw==

>  <s_epik_cmdline>  (103) 
J2VwaWtfcHl0aG9uJywgJy1waHQnLCAnMi4wJywgJy1waCcsICc3LjAnLCAnLXRuJywgJzgnLCAnLW1hJywgJzIwMCcsICctaW1hZScsICc8aW5maWxlLm1hZT4nLCAnLW9tYWUnLCAnPG91dGZpbGUubWFlPic=

>  <r_lp_tautomer_probability>  (103) 
1

>  <r_epik_Ionization_Penalty>  (103) 
0.144278

>  <r_epik_Ionization_Penalty_Charging>  (103) 
0.144183

>  <r_epik_Ionization_Penalty_Neutral>  (103) 
9.42016e-05

>  <r_epik_State_Penalty>  (103) 
0.165885

>  <r_epik_Charging_Adjusted_Penalty>  (103) 
0.310068

>  <i_epik_Tot_Q>  (103) 
1

>  <i_epik_Tot_abs_Q>  (103) 
1

>  <s_lp_Force_Field>  (103) 
OPLS3e

>  <r_lp_Energy>  (103) 
38.3816

>  <b_lp_Chiralities_Consistent>  (103) 
1

>  <s_lp_Variant>  (103) 
32:0-1

>  <s_i_glide_gridfile>  (103) 
pfpi4k_grid

>  <i_i_glide_lignum>  (103) 
6

>  <i_i_glide_rotatable_bonds>  (103) 
0

>  <r_i_docking_score>  (103) 
-4.75869

>  <r_i_glide_ligand_efficiency>  (103) 
-0.339906

>  <r_i_glide_ligand_efficiency_sa>  (103) 
-0.819223

>  <r_i_glide_ligand_efficiency_ln>  (103) 
-1.30767

>  <r_i_glide_gscore>  (103) 
-4.75869

>  <r_i_glide_lipo>  (103) 
-0.611879

>  <r_i_glide_hbond>  (103) 
-0.153917

>  <r_i_glide_metal>  (103) 
-0

>  <r_i_glide_rewards>  (103) 
-2.20946

>  <r_i_glide_evdw>  (103) 
-14.3663

>  <r_i_glide_ecoul>  (103) 
-6.66118

>  <r_i_glide_erotb>  (103) 
0

>  <r_i_glide_esite>  (103) 
-0.0659444

>  <r_i_glide_emodel>  (103) 
-29.3849

>  <r_i_glide_energy>  (103) 
-21.0274

>  <r_i_glide_einternal>  (103) 
0

>  <r_i_glide_intrahb_reward>  (103) 
-0

>  <i_i_glide_confnum>  (103) 
1

>  <i_i_glide_posenum>  (103) 
1

>  <r_i_glide_eff_state_penalty>  (103) 
0

>  <ligand_id>  (103) 
32

>  <original_smiles>  (103) 
CN1CCN2Cc3ccnn3CC2C1

>  <smiles>  (103) 
[H]c1nn2c(c1[H])C([H])([H])N1C([H])([H])C([H])([H])[N+]([H])(C([H])([H])[H])C([H])([H])C1([H])C2([H])[H]

$$$$
32:0:1
     RDKit          3D

 31 33  0  0  1  0  0  0  0  0999 V2000
    2.4457   -0.0322   -4.8970 C   0  0  0  0  0  0  0  0  0  0  0  0
    2.9977   -0.8853   -3.8183 N   0  0  2  0  0  0  0  0  0  0  0  0
    4.3669   -0.5056   -3.4529 C   0  0  0  0  0  0  0  0  0  0  0  0
    4.8917   -1.3701   -2.2969 C   0  0  0  0  0  0  0  0  0  0  0  0
    4.8801   -2.7677   -2.7252 N   0  0  0  0  0  0  0  0  0  0  0  0
    5.4837   -3.6734   -1.7431 C   0  0  0  0  0  0  0  0  0  0  0  0
    4.6464   -3.9160   -0.5281 C   0  0  0  0  0  0  0  0  0  0  0  0
    4.9131   -4.3244    0.7456 C   0  0  0  0  0  0  0  0  0  0  0  0
    3.6233   -4.3780    1.3540 C   0  0  0  0  0  0  0  0  0  0  0  0
    2.6455   -4.0475    0.5238 N   0  0  0  0  0  0  0  0  0  0  0  0
    3.2858   -3.7642   -0.6248 N   0  0  0  0  0  0  0  0  0  0  0  0
    2.5822   -3.2673   -1.7842 C   0  0  0  0  0  0  0  0  0  0  0  0
    3.5084   -3.2093   -3.0310 C   0  0  1  0  0  0  0  0  0  0  0  0
    2.9225   -2.3288   -4.1443 C   0  0  0  0  0  0  0  0  0  0  0  0
    3.0187   -0.1290   -5.8221 H   0  0  0  0  0  0  0  0  0  0  0  0
    2.4444    1.0192   -4.6154 H   0  0  0  0  0  0  0  0  0  0  0  0
    1.4156   -0.3015   -5.1202 H   0  0  0  0  0  0  0  0  0  0  0  0
    4.9897   -0.6516   -4.3369 H   0  0  0  0  0  0  0  0  0  0  0  0
    4.3816    0.5501   -3.1651 H   0  0  0  0  0  0  0  0  0  0  0  0
    5.9137   -1.0750   -2.0753 H   0  0  0  0  0  0  0  0  0  0  0  0
    4.3113   -1.2079   -1.3894 H   0  0  0  0  0  0  0  0  0  0  0  0
    5.6237   -4.6266   -2.2469 H   0  0  0  0  0  0  0  0  0  0  0  0
    6.4716   -3.3184   -1.4564 H   0  0  0  0  0  0  0  0  0  0  0  0
    5.8770   -4.5504    1.1824 H   0  0  0  0  0  0  0  0  0  0  0  0
    3.3602   -4.6394    2.3678 H   0  0  0  0  0  0  0  0  0  0  0  0
    1.7136   -3.8958   -1.9789 H   0  0  0  0  0  0  0  0  0  0  0  0
    2.2140   -2.2743   -1.5412 H   0  0  0  0  0  0  0  0  0  0  0  0
    3.5945   -4.2158   -3.4404 H   0  0  0  0  0  0  0  0  0  0  0  0
    1.8863   -2.6171   -4.3082 H   0  0  0  0  0  0  0  0  0  0  0  0
    3.4552   -2.5108   -5.0735 H   0  0  0  0  0  0  0  0  0  0  0  0
    2.4219   -0.7424   -2.9958 H   0  0  0  0  0  0  0  0  0  0  0  0
  1  2  1  0
  1 15  1  0
  1 16  1  0
  1 17  1  0
  2 14  1  0
  2  3  1  0
  2 31  1  1
  3  4  1  0
  3 18  1  0
  3 19  1  0
  4  5  1  0
  4 20  1  0
  4 21  1  0
  5 13  1  0
  5  6  1  0
  6  7  1  0
  6 22  1  0
  6 23  1  0
  7 11  1  0
  7  8  2  0
  8  9  1  0
  8 24  1  0
  9 10  2  0
  9 25  1  0
 10 11  1  0
 11 12  1  0
 12 13  1  0
 12 26  1  0
 12 27  1  0
 13 14  1  0
 13 28  1  6
 14 29  1  0
 14 30  1  0
M  CHG  1   2   1
M  END
>  <i_m_ct_stereo_status>  (104) 
1

>  <s_m_source_file>  (104) 
/var/tmp/pbs.5076255.sched01/tmp5eg4wc32/41mqp692j8.sdf

>  <i_m_source_file_index>  (104) 
6

>  <i_lp_mmshare_version>  (104) 
48012

>  <i_f3d_flags>  (104) 
0

>  <s_epik_input>  (104) 
W0NIMl0xW0NIMl1OKFtDSDNdKVtDSDJdW0NAQEhdKE4xMilbQ0gyXW4zYyhbQ0gyXTIpW2NIXVtjSF1uMw==

>  <s_epik_cmdline>  (104) 
J2VwaWtfcHl0aG9uJywgJy1waHQnLCAnMi4wJywgJy1waCcsICc3LjAnLCAnLXRuJywgJzgnLCAnLW1hJywgJzIwMCcsICctaW1hZScsICc8aW5maWxlLm1hZT4nLCAnLW9tYWUnLCAnPG91dGZpbGUubWFlPic=

>  <r_lp_tautomer_probability>  (104) 
1

>  <r_epik_Ionization_Penalty>  (104) 
0.144278

>  <r_epik_Ionization_Penalty_Charging>  (104) 
0.144183

>  <r_epik_Ionization_Penalty_Neutral>  (104) 
9.42016e-05

>  <r_epik_State_Penalty>  (104) 
0.165885

>  <r_epik_Charging_Adjusted_Penalty>  (104) 
0.310068

>  <i_epik_Tot_Q>  (104) 
1

>  <i_epik_Tot_abs_Q>  (104) 
1

>  <s_lp_Force_Field>  (104) 
OPLS3e

>  <r_lp_Energy>  (104) 
38.3816

>  <b_lp_Chiralities_Consistent>  (104) 
1

>  <s_lp_Variant>  (104) 
32:0-1

>  <s_i_glide_gridfile>  (104) 
pfpi4k_grid

>  <i_i_glide_lignum>  (104) 
6

>  <i_i_glide_rotatable_bonds>  (104) 
0

>  <r_i_docking_score>  (104) 
-3.79064

>  <r_i_glide_ligand_efficiency>  (104) 
-0.27076

>  <r_i_glide_ligand_efficiency_sa>  (104) 
-0.65257

>  <r_i_glide_ligand_efficiency_ln>  (104) 
-1.04165

>  <r_i_glide_gscore>  (104) 
-3.79064

>  <r_i_glide_lipo>  (104) 
-0.469526

>  <r_i_glide_hbond>  (104) 
0

>  <r_i_glide_metal>  (104) 
-0

>  <r_i_glide_rewards>  (104) 
-2.09135

>  <r_i_glide_evdw>  (104) 
-16.8611

>  <r_i_glide_ecoul>  (104) 
-2.5421

>  <r_i_glide_erotb>  (104) 
0

>  <r_i_glide_esite>  (104) 
-0.00539469

>  <r_i_glide_emodel>  (104) 
-26.0125

>  <r_i_glide_energy>  (104) 
-19.4032

>  <r_i_glide_einternal>  (104) 
0

>  <r_i_glide_intrahb_reward>  (104) 
-0

>  <i_i_glide_confnum>  (104) 
2

>  <i_i_glide_posenum>  (104) 
14

>  <r_i_glide_eff_state_penalty>  (104) 
0

>  <ligand_id>  (104) 
32

>  <original_smiles>  (104) 
CN1CCN2Cc3ccnn3CC2C1

>  <smiles>  (104) 
[H]c1nn2c(c1[H])C([H])([H])N1C([H])([H])C([H])([H])[N+]([H])(C([H])([H])[H])C([H])([H])C1([H])C2([H])[H]

$$$$
32:0:2
     RDKit          3D

 31 33  0  0  1  0  0  0  0  0999 V2000
   -3.4183    3.3978    2.4941 C   0  0  0  0  0  0  0  0  0  0  0  0
   -2.5825    2.5704    3.3862 N   0  0  2  0  0  0  0  0  0  0  0  0
   -2.6381    3.0323    4.7941 C   0  0  0  0  0  0  0  0  0  0  0  0
   -1.8095    2.1133    5.7134 C   0  0  0  0  0  0  0  0  0  0  0  0
   -0.4218    2.1051    5.2475 N   0  0  0  0  0  0  0  0  0  0  0  0
    0.4851    1.3631    6.1332 C   0  0  0  0  0  0  0  0  0  0  0  0
    0.3358   -0.1218    6.0389 C   0  0  0  0  0  0  0  0  0  0  0  0
    0.6278   -1.1614    6.8758 C   0  0  0  0  0  0  0  0  0  0  0  0
    0.2592   -2.3140    6.1191 C   0  0  0  0  0  0  0  0  0  0  0  0
   -0.2421   -2.0116    4.9307 N   0  0  0  0  0  0  0  0  0  0  0  0
   -0.1723   -0.6668    4.8856 N   0  0  0  0  0  0  0  0  0  0  0  0
   -0.6772    0.0817    3.7532 C   0  0  0  0  0  0  0  0  0  0  0  0
   -0.3300    1.5930    3.8664 C   0  0  1  0  0  0  0  0  0  0  0  0
   -1.1735    2.4834    2.9282 C   0  0  0  0  0  0  0  0  0  0  0  0
   -3.0547    4.4273    2.4597 H   0  0  0  0  0  0  0  0  0  0  0  0
   -4.4576    3.4127    2.8274 H   0  0  0  0  0  0  0  0  0  0  0  0
   -3.4104    2.9844    1.4854 H   0  0  0  0  0  0  0  0  0  0  0  0
   -2.2688    4.0577    4.8656 H   0  0  0  0  0  0  0  0  0  0  0  0
   -3.6737    3.0451    5.1359 H   0  0  0  0  0  0  0  0  0  0  0  0
   -1.8458    2.5048    6.7321 H   0  0  0  0  0  0  0  0  0  0  0  0
   -2.2263    1.1054    5.7394 H   0  0  0  0  0  0  0  0  0  0  0  0
    1.5045    1.6306    5.8518 H   0  0  0  0  0  0  0  0  0  0  0  0
    0.3552    1.6929    7.1637 H   0  0  0  0  0  0  0  0  0  0  0  0
    1.0511   -1.1118    7.8690 H   0  0  0  0  0  0  0  0  0  0  0  0
    0.3225   -3.3565    6.3947 H   0  0  0  0  0  0  0  0  0  0  0  0
   -0.2445   -0.3241    2.8385 H   0  0  0  0  0  0  0  0  0  0  0  0
   -1.7561   -0.0758    3.7152 H   0  0  0  0  0  0  0  0  0  0  0  0
    0.7112    1.7100    3.5644 H   0  0  0  0  0  0  0  0  0  0  0  0
   -1.1338    2.0777    1.9173 H   0  0  0  0  0  0  0  0  0  0  0  0
   -0.7376    3.4824    2.8827 H   0  0  0  0  0  0  0  0  0  0  0  0
   -2.9714    1.6301    3.3448 H   0  0  0  0  0  0  0  0  0  0  0  0
  1  2  1  0
  1 15  1  0
  1 16  1  0
  1 17  1  0
  2 14  1  0
  2  3  1  0
  2 31  1  1
  3  4  1  0
  3 18  1  0
  3 19  1  0
  4  5  1  0
  4 20  1  0
  4 21  1  0
  5 13  1  0
  5  6  1  0
  6  7  1  0
  6 22  1  0
  6 23  1  0
  7 11  1  0
  7  8  2  0
  8  9  1  0
  8 24  1  0
  9 10  2  0
  9 25  1  0
 10 11  1  0
 11 12  1  0
 12 13  1  0
 12 26  1  0
 12 27  1  0
 13 14  1  0
 13 28  1  6
 14 29  1  0
 14 30  1  0
M  CHG  1   2   1
M  END
>  <i_m_ct_stereo_status>  (105) 
1

>  <s_m_source_file>  (105) 
/var/tmp/pbs.5076255.sched01/tmp5eg4wc32/41mqp692j8.sdf

>  <i_m_source_file_index>  (105) 
6

>  <i_lp_mmshare_version>  (105) 
48012

>  <i_f3d_flags>  (105) 
0

>  <s_epik_input>  (105) 
W0NIMl0xW0NIMl1OKFtDSDNdKVtDSDJdW0NAQEhdKE4xMilbQ0gyXW4zYyhbQ0gyXTIpW2NIXVtjSF1uMw==

>  <s_epik_cmdline>  (105) 
J2VwaWtfcHl0aG9uJywgJy1waHQnLCAnMi4wJywgJy1waCcsICc3LjAnLCAnLXRuJywgJzgnLCAnLW1hJywgJzIwMCcsICctaW1hZScsICc8aW5maWxlLm1hZT4nLCAnLW9tYWUnLCAnPG91dGZpbGUubWFlPic=

>  <r_lp_tautomer_probability>  (105) 
1

>  <r_epik_Ionization_Penalty>  (105) 
0.144278

>  <r_epik_Ionization_Penalty_Charging>  (105) 
0.144183

>  <r_epik_Ionization_Penalty_Neutral>  (105) 
9.42016e-05

>  <r_epik_State_Penalty>  (105) 
0.165885

>  <r_epik_Charging_Adjusted_Penalty>  (105) 
0.310068

>  <i_epik_Tot_Q>  (105) 
1

>  <i_epik_Tot_abs_Q>  (105) 
1

>  <s_lp_Force_Field>  (105) 
OPLS3e

>  <r_lp_Energy>  (105) 
38.3816

>  <b_lp_Chiralities_Consistent>  (105) 
1

>  <s_lp_Variant>  (105) 
32:0-1

>  <s_i_glide_gridfile>  (105) 
pfpi4k_grid

>  <i_i_glide_lignum>  (105) 
6

>  <i_i_glide_rotatable_bonds>  (105) 
0

>  <r_i_docking_score>  (105) 
-3.22315

>  <r_i_glide_ligand_efficiency>  (105) 
-0.230225

>  <r_i_glide_ligand_efficiency_sa>  (105) 
-0.554875

>  <r_i_glide_ligand_efficiency_ln>  (105) 
-0.88571

>  <r_i_glide_gscore>  (105) 
-3.22315

>  <r_i_glide_lipo>  (105) 
-0.0492298

>  <r_i_glide_hbond>  (105) 
0

>  <r_i_glide_metal>  (105) 
-0

>  <r_i_glide_rewards>  (105) 
-2.09135

>  <r_i_glide_evdw>  (105) 
-13.2616

>  <r_i_glide_ecoul>  (105) 
-2.38975

>  <r_i_glide_erotb>  (105) 
0

>  <r_i_glide_esite>  (105) 
-0.0610267

>  <r_i_glide_emodel>  (105) 
-21.3039

>  <r_i_glide_energy>  (105) 
-15.6513

>  <r_i_glide_einternal>  (105) 
0

>  <r_i_glide_intrahb_reward>  (105) 
-0

>  <i_i_glide_confnum>  (105) 
1

>  <i_i_glide_posenum>  (105) 
3

>  <r_i_glide_eff_state_penalty>  (105) 
0

>  <ligand_id>  (105) 
32

>  <original_smiles>  (105) 
CN1CCN2Cc3ccnn3CC2C1

>  <smiles>  (105) 
[H]c1nn2c(c1[H])C([H])([H])N1C([H])([H])C([H])([H])[N+]([H])(C([H])([H])[H])C([H])([H])C1([H])C2([H])[H]

$$$$
32:1:0
     RDKit          3D

 30 32  0  0  1  0  0  0  0  0999 V2000
    8.8880   -4.5227    0.6718 C   0  0  0  0  0  0  0  0  0  0  0  0
    9.1560   -3.4147   -0.2307 N   0  0  0  0  0  0  0  0  0  0  0  0
    8.9345   -2.1007    0.3561 C   0  0  0  0  0  0  0  0  0  0  0  0
    7.4354   -1.7916    0.5466 C   0  0  0  0  0  0  0  0  0  0  0  0
    6.7080   -1.8590   -0.7149 N   0  0  0  0  0  0  0  0  0  0  0  0
    5.2745   -1.6289   -0.5141 C   0  0  0  0  0  0  0  0  0  0  0  0
    4.4896   -1.7870   -1.7835 C   0  0  0  0  0  0  0  0  0  0  0  0
    3.3003   -1.3116   -2.2287 C   0  0  0  0  0  0  0  0  0  0  0  0
    3.1589   -1.8891   -3.5259 C   0  0  0  0  0  0  0  0  0  0  0  0
    4.1907   -2.6478   -3.8652 N   0  0  0  0  0  0  0  0  0  0  0  0
    4.9738   -2.5972   -2.7709 N   0  0  0  0  0  0  0  0  0  0  0  0
    6.2459   -3.2322   -2.7503 C   0  0  0  0  0  0  0  0  0  0  0  0
    6.9358   -3.1645   -1.3700 C   0  0  1  0  0  0  0  0  0  0  0  0
    8.4550   -3.4598   -1.5115 C   0  0  0  0  0  0  0  0  0  0  0  0
    9.4894   -4.4228    1.5759 H   0  0  0  0  0  0  0  0  0  0  0  0
    9.1551   -5.4683    0.1995 H   0  0  0  0  0  0  0  0  0  0  0  0
    7.8419   -4.5702    0.9659 H   0  0  0  0  0  0  0  0  0  0  0  0
    9.5214   -1.9921    1.2686 H   0  0  0  0  0  0  0  0  0  0  0  0
    9.3456   -1.3598   -0.3212 H   0  0  0  0  0  0  0  0  0  0  0  0
    7.0058   -2.4836    1.2676 H   0  0  0  0  0  0  0  0  0  0  0  0
    7.3280   -0.7925    0.9645 H   0  0  0  0  0  0  0  0  0  0  0  0
    4.8822   -2.3420    0.2138 H   0  0  0  0  0  0  0  0  0  0  0  0
    5.0997   -0.6303   -0.1175 H   0  0  0  0  0  0  0  0  0  0  0  0
    2.6217   -0.6602   -1.6929 H   0  0  0  0  0  0  0  0  0  0  0  0
    2.3427   -1.7923   -4.2224 H   0  0  0  0  0  0  0  0  0  0  0  0
    6.1319   -4.2507   -3.0967 H   0  0  0  0  0  0  0  0  0  0  0  0
    6.8184   -2.6663   -3.4623 H   0  0  0  0  0  0  0  0  0  0  0  0
    6.4960   -3.9503   -0.7566 H   0  0  0  0  0  0  0  0  0  0  0  0
    8.9019   -2.7298   -2.1904 H   0  0  0  0  0  0  0  0  0  0  0  0
    8.6471   -4.4020   -2.0112 H   0  0  0  0  0  0  0  0  0  0  0  0
  1  2  1  0
  1 15  1  0
  1 16  1  0
  1 17  1  0
  2 14  1  0
  2  3  1  0
  3  4  1  0
  3 18  1  0
  3 19  1  0
  4  5  1  0
  4 20  1  0
  4 21  1  0
  5 13  1  0
  5  6  1  0
  6  7  1  0
  6 22  1  0
  6 23  1  0
  7 11  1  0
  7  8  2  0
  8  9  1  0
  8 24  1  0
  9 10  2  0
  9 25  1  0
 10 11  1  0
 11 12  1  0
 12 13  1  0
 12 26  1  0
 12 27  1  0
 13 14  1  0
 13 28  1  1
 14 29  1  0
 14 30  1  0
M  END
>  <i_m_ct_stereo_status>  (106) 
1

>  <s_m_source_file>  (106) 
/var/tmp/pbs.5076255.sched01/tmp5eg4wc32/41mqp692j8.sdf

>  <i_m_source_file_index>  (106) 
7

>  <i_lp_mmshare_version>  (106) 
48012

>  <i_f3d_flags>  (106) 
0

>  <s_epik_input>  (106) 
W0NIMl0xW0NIMl1OKFtDSDNdKVtDSDJdW0NAQEhdKE4xMilbQ0gyXW4zYyhbQ0gyXTIpW2NIXVtjSF1uMw==

>  <s_epik_cmdline>  (106) 
J2VwaWtfcHl0aG9uJywgJy1waHQnLCAnMi4wJywgJy1waCcsICc3LjAnLCAnLXRuJywgJzgnLCAnLW1hJywgJzIwMCcsICctaW1hZScsICc8aW5maWxlLm1hZT4nLCAnLW9tYWUnLCAnPG91dGZpbGUubWFlPic=

>  <r_lp_tautomer_probability>  (106) 
1

>  <r_epik_Ionization_Penalty>  (106) 
1.06588

>  <r_epik_Ionization_Penalty_Charging>  (106) 
0

>  <r_epik_Ionization_Penalty_Neutral>  (106) 
1.06588

>  <r_epik_State_Penalty>  (106) 
0.980891

>  <r_epik_Charging_Adjusted_Penalty>  (106) 
0.980891

>  <i_epik_Tot_Q>  (106) 
0

>  <i_epik_Tot_abs_Q>  (106) 
0

>  <s_lp_Force_Field>  (106) 
OPLS3e

>  <r_lp_Energy>  (106) 
35.6825

>  <b_lp_Chiralities_Consistent>  (106) 
1

>  <s_lp_Variant>  (106) 
32:0-2

>  <s_i_glide_gridfile>  (106) 
pfpi4k_grid

>  <i_i_glide_lignum>  (106) 
7

>  <i_i_glide_rotatable_bonds>  (106) 
0

>  <r_i_docking_score>  (106) 
-5.00799

>  <r_i_glide_ligand_efficiency>  (106) 
-0.357713

>  <r_i_glide_ligand_efficiency_sa>  (106) 
-0.86214

>  <r_i_glide_ligand_efficiency_ln>  (106) 
-1.37618

>  <r_i_glide_gscore>  (106) 
-5.00799

>  <r_i_glide_lipo>  (106) 
-0.474378

>  <r_i_glide_hbond>  (106) 
-0.414702

>  <r_i_glide_metal>  (106) 
-0

>  <r_i_glide_rewards>  (106) 
-2.30231

>  <r_i_glide_evdw>  (106) 
-12.9336

>  <r_i_glide_ecoul>  (106) 
-7.79943

>  <r_i_glide_erotb>  (106) 
0

>  <r_i_glide_esite>  (106) 
0

>  <r_i_glide_emodel>  (106) 
-27.7716

>  <r_i_glide_energy>  (106) 
-20.7331

>  <r_i_glide_einternal>  (106) 
0

>  <r_i_glide_intrahb_reward>  (106) 
-0

>  <i_i_glide_confnum>  (106) 
1

>  <i_i_glide_posenum>  (106) 
3

>  <r_i_glide_eff_state_penalty>  (106) 
0

>  <ligand_id>  (106) 
32

>  <original_smiles>  (106) 
CN1CCN2Cc3ccnn3CC2C1

>  <smiles>  (106) 
[H]c1nn2c(c1[H])C([H])([H])N1C([H])([H])C([H])([H])N(C([H])([H])[H])C([H])([H])C1([H])C2([H])[H]

$$$$
32:1:1
     RDKit          3D

 30 32  0  0  1  0  0  0  0  0999 V2000
    3.7573   -4.7033    1.8161 C   0  0  0  0  0  0  0  0  0  0  0  0
    4.9048   -4.7991    0.9204 N   0  0  0  0  0  0  0  0  0  0  0  0
    5.9392   -3.8048    1.1980 C   0  0  0  0  0  0  0  0  0  0  0  0
    5.5137   -2.3845    0.7809 C   0  0  0  0  0  0  0  0  0  0  0  0
    5.1628   -2.3087   -0.6395 N   0  0  0  0  0  0  0  0  0  0  0  0
    4.7010   -0.9640   -0.9889 C   0  0  0  0  0  0  0  0  0  0  0  0
    4.2501   -0.8848   -2.4089 C   0  0  0  0  0  0  0  0  0  0  0  0
    4.1419    0.1398   -3.2999 C   0  0  0  0  0  0  0  0  0  0  0  0
    3.6068   -0.4838   -4.4641 C   0  0  0  0  0  0  0  0  0  0  0  0
    3.4429   -1.7882   -4.3168 N   0  0  0  0  0  0  0  0  0  0  0  0
    3.8204   -2.0187   -3.0462 N   0  0  0  0  0  0  0  0  0  0  0  0
    3.8298   -3.3529   -2.4943 C   0  0  0  0  0  0  0  0  0  0  0  0
    4.1326   -3.3162   -0.9726 C   0  0  1  0  0  0  0  0  0  0  0  0
    4.5409   -4.7321   -0.4986 C   0  0  0  0  0  0  0  0  0  0  0  0
    4.0704   -4.7994    2.8569 H   0  0  0  0  0  0  0  0  0  0  0  0
    3.0464   -5.5054    1.6139 H   0  0  0  0  0  0  0  0  0  0  0  0
    3.2332   -3.7536    1.7058 H   0  0  0  0  0  0  0  0  0  0  0  0
    6.1976   -3.8177    2.2578 H   0  0  0  0  0  0  0  0  0  0  0  0
    6.8474   -4.0722    0.6595 H   0  0  0  0  0  0  0  0  0  0  0  0
    4.6750   -2.0539    1.3918 H   0  0  0  0  0  0  0  0  0  0  0  0
    6.3328   -1.6964    0.9864 H   0  0  0  0  0  0  0  0  0  0  0  0
    3.8747   -0.6717   -0.3445 H   0  0  0  0  0  0  0  0  0  0  0  0
    5.4985   -0.2553   -0.8164 H   0  0  0  0  0  0  0  0  0  0  0  0
    4.3979    1.1774   -3.1428 H   0  0  0  0  0  0  0  0  0  0  0  0
    3.3596   -0.0377   -5.4184 H   0  0  0  0  0  0  0  0  0  0  0  0
    2.8688   -3.8275   -2.6947 H   0  0  0  0  0  0  0  0  0  0  0  0
    4.6030   -3.9106   -3.0227 H   0  0  0  0  0  0  0  0  0  0  0  0
    3.2091   -3.0392   -0.4636 H   0  0  0  0  0  0  0  0  0  0  0  0
    5.3874   -5.0635   -1.0989 H   0  0  0  0  0  0  0  0  0  0  0  0
    3.7370   -5.4375   -0.7041 H   0  0  0  0  0  0  0  0  0  0  0  0
  1  2  1  0
  1 15  1  0
  1 16  1  0
  1 17  1  0
  2 14  1  0
  2  3  1  0
  3  4  1  0
  3 18  1  0
  3 19  1  0
  4  5  1  0
  4 20  1  0
  4 21  1  0
  5 13  1  0
  5  6  1  0
  6  7  1  0
  6 22  1  0
  6 23  1  0
  7 11  1  0
  7  8  2  0
  8  9  1  0
  8 24  1  0
  9 10  2  0
  9 25  1  0
 10 11  1  0
 11 12  1  0
 12 13  1  0
 12 26  1  0
 12 27  1  0
 13 14  1  0
 13 28  1  1
 14 29  1  0
 14 30  1  0
M  END
>  <i_m_ct_stereo_status>  (107) 
1

>  <s_m_source_file>  (107) 
/var/tmp/pbs.5076255.sched01/tmp5eg4wc32/41mqp692j8.sdf

>  <i_m_source_file_index>  (107) 
7

>  <i_lp_mmshare_version>  (107) 
48012

>  <i_f3d_flags>  (107) 
0

>  <s_epik_input>  (107) 
W0NIMl0xW0NIMl1OKFtDSDNdKVtDSDJdW0NAQEhdKE4xMilbQ0gyXW4zYyhbQ0gyXTIpW2NIXVtjSF1uMw==

>  <s_epik_cmdline>  (107) 
J2VwaWtfcHl0aG9uJywgJy1waHQnLCAnMi4wJywgJy1waCcsICc3LjAnLCAnLXRuJywgJzgnLCAnLW1hJywgJzIwMCcsICctaW1hZScsICc8aW5maWxlLm1hZT4nLCAnLW9tYWUnLCAnPG91dGZpbGUubWFlPic=

>  <r_lp_tautomer_probability>  (107) 
1

>  <r_epik_Ionization_Penalty>  (107) 
1.06588

>  <r_epik_Ionization_Penalty_Charging>  (107) 
0

>  <r_epik_Ionization_Penalty_Neutral>  (107) 
1.06588

>  <r_epik_State_Penalty>  (107) 
0.980891

>  <r_epik_Charging_Adjusted_Penalty>  (107) 
0.980891

>  <i_epik_Tot_Q>  (107) 
0

>  <i_epik_Tot_abs_Q>  (107) 
0

>  <s_lp_Force_Field>  (107) 
OPLS3e

>  <r_lp_Energy>  (107) 
35.6825

>  <b_lp_Chiralities_Consistent>  (107) 
1

>  <s_lp_Variant>  (107) 
32:0-2

>  <s_i_glide_gridfile>  (107) 
pfpi4k_grid

>  <i_i_glide_lignum>  (107) 
7

>  <i_i_glide_rotatable_bonds>  (107) 
0

>  <r_i_docking_score>  (107) 
-4.37578

>  <r_i_glide_ligand_efficiency>  (107) 
-0.312556

>  <r_i_glide_ligand_efficiency_sa>  (107) 
-0.753304

>  <r_i_glide_ligand_efficiency_ln>  (107) 
-1.20245

>  <r_i_glide_gscore>  (107) 
-4.37578

>  <r_i_glide_lipo>  (107) 
-0.462276

>  <r_i_glide_hbond>  (107) 
-0.289743

>  <r_i_glide_metal>  (107) 
-0

>  <r_i_glide_rewards>  (107) 
-2.20917

>  <r_i_glide_evdw>  (107) 
-16.8275

>  <r_i_glide_ecoul>  (107) 
-3.82146

>  <r_i_glide_erotb>  (107) 
0

>  <r_i_glide_esite>  (107) 
0

>  <r_i_glide_emodel>  (107) 
-26.8782

>  <r_i_glide_energy>  (107) 
-20.6489

>  <r_i_glide_einternal>  (107) 
0

>  <r_i_glide_intrahb_reward>  (107) 
-0

>  <i_i_glide_confnum>  (107) 
2

>  <i_i_glide_posenum>  (107) 
14

>  <r_i_glide_eff_state_penalty>  (107) 
0

>  <ligand_id>  (107) 
32

>  <original_smiles>  (107) 
CN1CCN2Cc3ccnn3CC2C1

>  <smiles>  (107) 
[H]c1nn2c(c1[H])C([H])([H])N1C([H])([H])C([H])([H])N(C([H])([H])[H])C([H])([H])C1([H])C2([H])[H]

$$$$
32:1:2
     RDKit          3D

 30 32  0  0  1  0  0  0  0  0999 V2000
    2.8541   -1.8241   -3.6586 C   0  0  0  0  0  0  0  0  0  0  0  0
    4.2813   -1.8681   -3.3713 N   0  0  0  0  0  0  0  0  0  0  0  0
    4.7675   -3.2155   -3.0705 C   0  0  0  0  0  0  0  0  0  0  0  0
    4.2972   -3.7141   -1.6909 C   0  0  0  0  0  0  0  0  0  0  0  0
    4.7089   -2.8155   -0.6108 N   0  0  0  0  0  0  0  0  0  0  0  0
    4.1973   -3.2947    0.6799 C   0  0  0  0  0  0  0  0  0  0  0  0
    4.5213   -2.3585    1.7983 C   0  0  0  0  0  0  0  0  0  0  0  0
    4.6493   -2.5055    3.1511 C   0  0  0  0  0  0  0  0  0  0  0  0
    4.9474   -1.1867    3.6058 C   0  0  0  0  0  0  0  0  0  0  0  0
    5.0102   -0.3038    2.6210 N   0  0  0  0  0  0  0  0  0  0  0  0
    4.7380   -1.0305    1.5193 N   0  0  0  0  0  0  0  0  0  0  0  0
    4.7784   -0.4478    0.1939 C   0  0  0  0  0  0  0  0  0  0  0  0
    4.2456   -1.4381   -0.8764 C   0  0  1  0  0  0  0  0  0  0  0  0
    4.6742   -0.9591   -2.2889 C   0  0  0  0  0  0  0  0  0  0  0  0
    2.6073   -2.4900   -4.4852 H   0  0  0  0  0  0  0  0  0  0  0  0
    2.5605   -0.8134   -3.9433 H   0  0  0  0  0  0  0  0  0  0  0  0
    2.2535   -2.1212   -2.7981 H   0  0  0  0  0  0  0  0  0  0  0  0
    4.4432   -3.9138   -3.8454 H   0  0  0  0  0  0  0  0  0  0  0  0
    5.8576   -3.2206   -3.0980 H   0  0  0  0  0  0  0  0  0  0  0  0
    3.2139   -3.8355   -1.6915 H   0  0  0  0  0  0  0  0  0  0  0  0
    4.7133   -4.7065   -1.5163 H   0  0  0  0  0  0  0  0  0  0  0  0
    3.1127   -3.4001    0.6255 H   0  0  0  0  0  0  0  0  0  0  0  0
    4.5973   -4.2834    0.9007 H   0  0  0  0  0  0  0  0  0  0  0  0
    4.5497   -3.4136    3.7278 H   0  0  0  0  0  0  0  0  0  0  0  0
    5.1324   -0.8446    4.6143 H   0  0  0  0  0  0  0  0  0  0  0  0
    4.2131    0.4831    0.1937 H   0  0  0  0  0  0  0  0  0  0  0  0
    5.8193   -0.1984   -0.0081 H   0  0  0  0  0  0  0  0  0  0  0  0
    3.1545   -1.4238   -0.8287 H   0  0  0  0  0  0  0  0  0  0  0  0
    5.7583   -0.8560   -2.3031 H   0  0  0  0  0  0  0  0  0  0  0  0
    4.2755    0.0391   -2.4817 H   0  0  0  0  0  0  0  0  0  0  0  0
  1  2  1  0
  1 15  1  0
  1 16  1  0
  1 17  1  0
  2 14  1  0
  2  3  1  0
  3  4  1  0
  3 18  1  0
  3 19  1  0
  4  5  1  0
  4 20  1  0
  4 21  1  0
  5 13  1  0
  5  6  1  0
  6  7  1  0
  6 22  1  0
  6 23  1  0
  7 11  1  0
  7  8  2  0
  8  9  1  0
  8 24  1  0
  9 10  2  0
  9 25  1  0
 10 11  1  0
 11 12  1  0
 12 13  1  0
 12 26  1  0
 12 27  1  0
 13 14  1  0
 13 28  1  6
 14 29  1  0
 14 30  1  0
M  END
>  <i_m_ct_stereo_status>  (108) 
1

>  <s_m_source_file>  (108) 
/var/tmp/pbs.5076255.sched01/tmp5eg4wc32/41mqp692j8.sdf

>  <i_m_source_file_index>  (108) 
7

>  <i_lp_mmshare_version>  (108) 
48012

>  <i_f3d_flags>  (108) 
0

>  <s_epik_input>  (108) 
W0NIMl0xW0NIMl1OKFtDSDNdKVtDSDJdW0NAQEhdKE4xMilbQ0gyXW4zYyhbQ0gyXTIpW2NIXVtjSF1uMw==

>  <s_epik_cmdline>  (108) 
J2VwaWtfcHl0aG9uJywgJy1waHQnLCAnMi4wJywgJy1waCcsICc3LjAnLCAnLXRuJywgJzgnLCAnLW1hJywgJzIwMCcsICctaW1hZScsICc8aW5maWxlLm1hZT4nLCAnLW9tYWUnLCAnPG91dGZpbGUubWFlPic=

>  <r_lp_tautomer_probability>  (108) 
1

>  <r_epik_Ionization_Penalty>  (108) 
1.06588

>  <r_epik_Ionization_Penalty_Charging>  (108) 
0

>  <r_epik_Ionization_Penalty_Neutral>  (108) 
1.06588

>  <r_epik_State_Penalty>  (108) 
0.980891

>  <r_epik_Charging_Adjusted_Penalty>  (108) 
0.980891

>  <i_epik_Tot_Q>  (108) 
0

>  <i_epik_Tot_abs_Q>  (108) 
0

>  <s_lp_Force_Field>  (108) 
OPLS3e

>  <r_lp_Energy>  (108) 
35.6825

>  <b_lp_Chiralities_Consistent>  (108) 
1

>  <s_lp_Variant>  (108) 
32:0-2

>  <s_i_glide_gridfile>  (108) 
pfpi4k_grid

>  <i_i_glide_lignum>  (108) 
7

>  <i_i_glide_rotatable_bonds>  (108) 
0

>  <r_i_docking_score>  (108) 
-4.32844

>  <r_i_glide_ligand_efficiency>  (108) 
-0.309174

>  <r_i_glide_ligand_efficiency_sa>  (108) 
-0.745154

>  <r_i_glide_ligand_efficiency_ln>  (108) 
-1.18944

>  <r_i_glide_gscore>  (108) 
-4.32844

>  <r_i_glide_lipo>  (108) 
-0.622829

>  <r_i_glide_hbond>  (108) 
-0.0221563

>  <r_i_glide_metal>  (108) 
-0

>  <r_i_glide_rewards>  (108) 
-2.21034

>  <r_i_glide_evdw>  (108) 
-18.4047

>  <r_i_glide_ecoul>  (108) 
-3.68584

>  <r_i_glide_erotb>  (108) 
0

>  <r_i_glide_esite>  (108) 
0

>  <r_i_glide_emodel>  (108) 
-28.2568

>  <r_i_glide_energy>  (108) 
-22.0906

>  <r_i_glide_einternal>  (108) 
0

>  <r_i_glide_intrahb_reward>  (108) 
-0

>  <i_i_glide_confnum>  (108) 
1

>  <i_i_glide_posenum>  (108) 
2

>  <r_i_glide_eff_state_penalty>  (108) 
0

>  <ligand_id>  (108) 
32

>  <original_smiles>  (108) 
CN1CCN2Cc3ccnn3CC2C1

>  <smiles>  (108) 
[H]c1nn2c(c1[H])C([H])([H])N1C([H])([H])C([H])([H])N(C([H])([H])[H])C([H])([H])C1([H])C2([H])[H]

$$$$
32:2:0
     RDKit          3D

 31 33  0  0  1  0  0  0  0  0999 V2000
    4.4798   -4.3502    2.4844 C   0  0  0  0  0  0  0  0  0  0  0  0
    4.1176   -3.7369    1.2153 N   0  0  0  0  0  0  0  0  0  0  0  0
    2.7386   -4.0824    0.8706 C   0  0  0  0  0  0  0  0  0  0  0  0
    2.3499   -3.4037   -0.4521 C   0  0  0  0  0  0  0  0  0  0  0  0
    3.2613   -3.8311   -1.5301 N   0  0  1  0  0  0  0  0  0  0  0  0
    2.8858   -3.3453   -2.8879 C   0  0  0  0  0  0  0  0  0  0  0  0
    3.3495   -1.9562   -3.1588 C   0  0  0  0  0  0  0  0  0  0  0  0
    3.0142   -1.0179   -4.0903 C   0  0  0  0  0  0  0  0  0  0  0  0
    3.8175    0.0929   -3.7449 C   0  0  0  0  0  0  0  0  0  0  0  0
    4.6156   -0.1717   -2.7199 N   0  0  0  0  0  0  0  0  0  0  0  0
    4.3260   -1.4223   -2.3653 N   0  0  0  0  0  0  0  0  0  0  0  0
    4.9426   -2.0138   -1.2054 C   0  0  0  0  0  0  0  0  0  0  0  0
    4.6697   -3.5367   -1.1754 C   0  0  1  0  0  0  0  0  0  0  0  0
    5.0178   -4.2116    0.1623 C   0  0  0  0  0  0  0  0  0  0  0  0
    3.8296   -3.9898    3.2792 H   0  0  0  0  0  0  0  0  0  0  0  0
    5.5022   -4.0901    2.7517 H   0  0  0  0  0  0  0  0  0  0  0  0
    4.4046   -5.4375    2.4483 H   0  0  0  0  0  0  0  0  0  0  0  0
    2.6140   -5.1656    0.7957 H   0  0  0  0  0  0  0  0  0  0  0  0
    2.0760   -3.7295    1.6611 H   0  0  0  0  0  0  0  0  0  0  0  0
    1.3530   -3.6904   -0.7526 H   0  0  0  0  0  0  0  0  0  0  0  0
    2.3559   -2.3222   -0.3403 H   0  0  0  0  0  0  0  0  0  0  0  0
    3.3663   -3.9926   -3.6126 H   0  0  0  0  0  0  0  0  0  0  0  0
    1.8186   -3.4424   -3.0698 H   0  0  0  0  0  0  0  0  0  0  0  0
    2.2527   -1.0655   -4.8495 H   0  0  0  0  0  0  0  0  0  0  0  0
    3.8508    1.0802   -4.1759 H   0  0  0  0  0  0  0  0  0  0  0  0
    6.0127   -1.8131   -1.2221 H   0  0  0  0  0  0  0  0  0  0  0  0
    4.5317   -1.5204   -0.3238 H   0  0  0  0  0  0  0  0  0  0  0  0
    5.2819   -3.9939   -1.9450 H   0  0  0  0  0  0  0  0  0  0  0  0
    6.0496   -3.9852    0.4229 H   0  0  0  0  0  0  0  0  0  0  0  0
    4.9460   -5.2976    0.0579 H   0  0  0  0  0  0  0  0  0  0  0  0
    3.1717   -4.8377   -1.6247 H   0  0  0  0  0  0  0  0  0  0  0  0
  1  2  1  0
  1 15  1  0
  1 16  1  0
  1 17  1  0
  2 14  1  0
  2  3  1  0
  3  4  1  0
  3 18  1  0
  3 19  1  0
  4  5  1  0
  4 20  1  0
  4 21  1  0
  5 13  1  0
  5  6  1  0
  5 31  1  6
  6  7  1  0
  6 22  1  0
  6 23  1  0
  7 11  1  0
  7  8  2  0
  8  9  1  0
  8 24  1  0
  9 10  2  0
  9 25  1  0
 10 11  1  0
 11 12  1  0
 12 13  1  0
 12 26  1  0
 12 27  1  0
 13 14  1  0
 13 28  1  6
 14 29  1  0
 14 30  1  0
M  CHG  1   5   1
M  END
>  <i_m_ct_stereo_status>  (109) 
1

>  <s_m_source_file>  (109) 
/var/tmp/pbs.5076255.sched01/tmp5eg4wc32/41mqp692j8.sdf

>  <i_m_source_file_index>  (109) 
8

>  <i_lp_mmshare_version>  (109) 
48012

>  <i_f3d_flags>  (109) 
0

>  <s_epik_input>  (109) 
W0NIMl0xW0NIMl1OKFtDSDNdKVtDSDJdW0NAQEhdKE4xMilbQ0gyXW4zYyhbQ0gyXTIpW2NIXVtjSF1uMw==

>  <s_epik_cmdline>  (109) 
J2VwaWtfcHl0aG9uJywgJy1waHQnLCAnMi4wJywgJy1waCcsICc3LjAnLCAnLXRuJywgJzgnLCAnLW1hJywgJzIwMCcsICctaW1hZScsICc8aW5maWxlLm1hZT4nLCAnLW9tYWUnLCAnPG91dGZpbGUubWFlPic=

>  <r_epik_Ionization_Penalty>  (109) 
0.866146

>  <r_epik_Ionization_Penalty_Charging>  (109) 
0.865849

>  <r_epik_Ionization_Penalty_Neutral>  (109) 
0.000296778

>  <r_epik_State_Penalty>  (109) 
1.738

>  <r_epik_Charging_Adjusted_Penalty>  (109) 
2.60385

>  <i_epik_Tot_Q>  (109) 
1

>  <i_epik_Tot_abs_Q>  (109) 
1

>  <s_lp_Force_Field>  (109) 
OPLS3e

>  <r_lp_Energy>  (109) 
28.1467

>  <b_lp_Chiralities_Consistent>  (109) 
1

>  <s_lp_Variant>  (109) 
32:0-3

>  <s_i_glide_gridfile>  (109) 
pfpi4k_grid

>  <i_i_glide_lignum>  (109) 
8

>  <i_i_glide_rotatable_bonds>  (109) 
0

>  <r_i_docking_score>  (109) 
-4.33093

>  <r_i_glide_ligand_efficiency>  (109) 
-0.309352

>  <r_i_glide_ligand_efficiency_sa>  (109) 
-0.745583

>  <r_i_glide_ligand_efficiency_ln>  (109) 
-1.19012

>  <r_i_glide_gscore>  (109) 
-4.33093

>  <r_i_glide_lipo>  (109) 
-0.346651

>  <r_i_glide_hbond>  (109) 
0

>  <r_i_glide_metal>  (109) 
-0

>  <r_i_glide_rewards>  (109) 
-2.09135

>  <r_i_glide_evdw>  (109) 
-13.093

>  <r_i_glide_ecoul>  (109) 
-7.99414

>  <r_i_glide_erotb>  (109) 
0

>  <r_i_glide_esite>  (109) 
-0.0391571

>  <r_i_glide_emodel>  (109) 
-27.3884

>  <r_i_glide_energy>  (109) 
-21.0872

>  <r_i_glide_einternal>  (109) 
0

>  <r_i_glide_intrahb_reward>  (109) 
-0

>  <i_i_glide_confnum>  (109) 
2

>  <i_i_glide_posenum>  (109) 
9

>  <r_i_glide_eff_state_penalty>  (109) 
0

>  <ligand_id>  (109) 
32

>  <original_smiles>  (109) 
CN1CCN2Cc3ccnn3CC2C1

>  <smiles>  (109) 
[H]c1nn2c(c1[H])C([H])([H])[N+]1([H])C([H])([H])C([H])([H])N(C([H])([H])[H])C([H])([H])C1([H])C2([H])[H]

$$$$
32:2:1
     RDKit          3D

 31 33  0  0  1  0  0  0  0  0999 V2000
    4.5773   -6.5262    0.7664 C   0  0  0  0  0  0  0  0  0  0  0  0
    4.5652   -5.2457    0.0743 N   0  0  0  0  0  0  0  0  0  0  0  0
    5.6035   -4.3664    0.6136 C   0  0  0  0  0  0  0  0  0  0  0  0
    5.6129   -3.0227   -0.1470 C   0  0  0  0  0  0  0  0  0  0  0  0
    4.2814   -2.3736   -0.0453 N   0  0  1  0  0  0  0  0  0  0  0  0
    4.2037   -1.0165   -0.6400 C   0  0  0  0  0  0  0  0  0  0  0  0
    4.0189   -1.0478   -2.1293 C   0  0  0  0  0  0  0  0  0  0  0  0
    4.1979   -0.1229   -3.1172 C   0  0  0  0  0  0  0  0  0  0  0  0
    3.8106   -0.8048   -4.3030 C   0  0  0  0  0  0  0  0  0  0  0  0
    3.4630   -2.0603   -4.0806 N   0  0  0  0  0  0  0  0  0  0  0  0
    3.5603   -2.1861   -2.7411 N   0  0  0  0  0  0  0  0  0  0  0  0
    3.2851   -3.4477   -2.0957 C   0  0  0  0  0  0  0  0  0  0  0  0
    3.2136   -3.2768   -0.5543 C   0  0  1  0  0  0  0  0  0  0  0  0
    3.2516   -4.6134    0.2169 C   0  0  0  0  0  0  0  0  0  0  0  0
    5.5416   -7.0172    0.6413 H   0  0  0  0  0  0  0  0  0  0  0  0
    3.8153   -7.1879    0.3561 H   0  0  0  0  0  0  0  0  0  0  0  0
    4.3881   -6.4113    1.8343 H   0  0  0  0  0  0  0  0  0  0  0  0
    5.4469   -4.1995    1.6827 H   0  0  0  0  0  0  0  0  0  0  0  0
    6.5754   -4.8494    0.4950 H   0  0  0  0  0  0  0  0  0  0  0  0
    6.3709   -2.3681    0.2848 H   0  0  0  0  0  0  0  0  0  0  0  0
    5.8908   -3.1751   -1.1925 H   0  0  0  0  0  0  0  0  0  0  0  0
    3.3432   -0.5278   -0.1840 H   0  0  0  0  0  0  0  0  0  0  0  0
    5.0755   -0.4219   -0.3739 H   0  0  0  0  0  0  0  0  0  0  0  0
    4.5244    0.9040   -3.0146 H   0  0  0  0  0  0  0  0  0  0  0  0
    3.7907   -0.4368   -5.3191 H   0  0  0  0  0  0  0  0  0  0  0  0
    2.3449   -3.8423   -2.4846 H   0  0  0  0  0  0  0  0  0  0  0  0
    4.0946   -4.1261   -2.3769 H   0  0  0  0  0  0  0  0  0  0  0  0
    2.2606   -2.7967   -0.3245 H   0  0  0  0  0  0  0  0  0  0  0  0
    2.4754   -5.2772   -0.1665 H   0  0  0  0  0  0  0  0  0  0  0  0
    3.0330   -4.4410    1.2737 H   0  0  0  0  0  0  0  0  0  0  0  0
    4.1058   -2.2577    0.9418 H   0  0  0  0  0  0  0  0  0  0  0  0
  1  2  1  0
  1 15  1  0
  1 16  1  0
  1 17  1  0
  2 14  1  0
  2  3  1  0
  3  4  1  0
  3 18  1  0
  3 19  1  0
  4  5  1  0
  4 20  1  0
  4 21  1  0
  5 13  1  0
  5  6  1  0
  5 31  1  1
  6  7  1  0
  6 22  1  0
  6 23  1  0
  7 11  1  0
  7  8  2  0
  8  9  1  0
  8 24  1  0
  9 10  2  0
  9 25  1  0
 10 11  1  0
 11 12  1  0
 12 13  1  0
 12 26  1  0
 12 27  1  0
 13 14  1  0
 13 28  1  6
 14 29  1  0
 14 30  1  0
M  CHG  1   5   1
M  END
>  <i_m_ct_stereo_status>  (110) 
1

>  <s_m_source_file>  (110) 
/var/tmp/pbs.5076255.sched01/tmp5eg4wc32/41mqp692j8.sdf

>  <i_m_source_file_index>  (110) 
8

>  <i_lp_mmshare_version>  (110) 
48012

>  <i_f3d_flags>  (110) 
0

>  <s_epik_input>  (110) 
W0NIMl0xW0NIMl1OKFtDSDNdKVtDSDJdW0NAQEhdKE4xMilbQ0gyXW4zYyhbQ0gyXTIpW2NIXVtjSF1uMw==

>  <s_epik_cmdline>  (110) 
J2VwaWtfcHl0aG9uJywgJy1waHQnLCAnMi4wJywgJy1waCcsICc3LjAnLCAnLXRuJywgJzgnLCAnLW1hJywgJzIwMCcsICctaW1hZScsICc8aW5maWxlLm1hZT4nLCAnLW9tYWUnLCAnPG91dGZpbGUubWFlPic=

>  <r_epik_Ionization_Penalty>  (110) 
0.866146

>  <r_epik_Ionization_Penalty_Charging>  (110) 
0.865849

>  <r_epik_Ionization_Penalty_Neutral>  (110) 
0.000296778

>  <r_epik_State_Penalty>  (110) 
1.738

>  <r_epik_Charging_Adjusted_Penalty>  (110) 
2.60385

>  <i_epik_Tot_Q>  (110) 
1

>  <i_epik_Tot_abs_Q>  (110) 
1

>  <s_lp_Force_Field>  (110) 
OPLS3e

>  <r_lp_Energy>  (110) 
28.1467

>  <b_lp_Chiralities_Consistent>  (110) 
1

>  <s_lp_Variant>  (110) 
32:0-3

>  <s_i_glide_gridfile>  (110) 
pfpi4k_grid

>  <i_i_glide_lignum>  (110) 
8

>  <i_i_glide_rotatable_bonds>  (110) 
0

>  <r_i_docking_score>  (110) 
-4.29883

>  <r_i_glide_ligand_efficiency>  (110) 
-0.30706

>  <r_i_glide_ligand_efficiency_sa>  (110) 
-0.740057

>  <r_i_glide_ligand_efficiency_ln>  (110) 
-1.1813

>  <r_i_glide_gscore>  (110) 
-4.29883

>  <r_i_glide_lipo>  (110) 
-0.54877

>  <r_i_glide_hbond>  (110) 
-0.174464

>  <r_i_glide_metal>  (110) 
-0

>  <r_i_glide_rewards>  (110) 
-2.09135

>  <r_i_glide_evdw>  (110) 
-18.4159

>  <r_i_glide_ecoul>  (110) 
-3.6452

>  <r_i_glide_erotb>  (110) 
0

>  <r_i_glide_esite>  (110) 
-0.0166752

>  <r_i_glide_emodel>  (110) 
-28.3617

>  <r_i_glide_energy>  (110) 
-22.0611

>  <r_i_glide_einternal>  (110) 
0

>  <r_i_glide_intrahb_reward>  (110) 
-0

>  <i_i_glide_confnum>  (110) 
1

>  <i_i_glide_posenum>  (110) 
18

>  <r_i_glide_eff_state_penalty>  (110) 
0

>  <ligand_id>  (110) 
32

>  <original_smiles>  (110) 
CN1CCN2Cc3ccnn3CC2C1

>  <smiles>  (110) 
[H]c1nn2c(c1[H])C([H])([H])[N+]1([H])C([H])([H])C([H])([H])N(C([H])([H])[H])C([H])([H])C1([H])C2([H])[H]

$$$$
32:2:2
     RDKit          3D

 31 33  0  0  1  0  0  0  0  0999 V2000
    7.1801   -5.7003    1.6052 C   0  0  0  0  0  0  0  0  0  0  0  0
    6.3910   -4.7558    0.8237 N   0  0  0  0  0  0  0  0  0  0  0  0
    6.0685   -3.5805    1.6371 C   0  0  0  0  0  0  0  0  0  0  0  0
    5.2611   -2.5589    0.8079 C   0  0  0  0  0  0  0  0  0  0  0  0
    4.0171   -3.1927    0.3044 N   0  0  1  0  0  0  0  0  0  0  0  0
    3.0978   -2.2693   -0.4146 C   0  0  0  0  0  0  0  0  0  0  0  0
    3.4891   -2.0602   -1.8431 C   0  0  0  0  0  0  0  0  0  0  0  0
    3.1691   -1.1090   -2.7704 C   0  0  0  0  0  0  0  0  0  0  0  0
    3.8887   -1.5084   -3.9267 C   0  0  0  0  0  0  0  0  0  0  0  0
    4.5960   -2.6101   -3.7391 N   0  0  0  0  0  0  0  0  0  0  0  0
    4.3381   -2.9487   -2.4628 N   0  0  0  0  0  0  0  0  0  0  0  0
    5.0057   -4.0755   -1.8401 C   0  0  0  0  0  0  0  0  0  0  0  0
    4.3306   -4.4181   -0.4859 C   0  0  1  0  0  0  0  0  0  0  0  0
    5.1518   -5.3986    0.3792 C   0  0  0  0  0  0  0  0  0  0  0  0
    8.1159   -5.2439    1.9287 H   0  0  0  0  0  0  0  0  0  0  0  0
    7.4339   -6.5756    1.0062 H   0  0  0  0  0  0  0  0  0  0  0  0
    6.6463   -6.0434    2.4934 H   0  0  0  0  0  0  0  0  0  0  0  0
    5.5124   -3.8698    2.5330 H   0  0  0  0  0  0  0  0  0  0  0  0
    6.9960   -3.1112    1.9609 H   0  0  0  0  0  0  0  0  0  0  0  0
    5.0063   -1.7009    1.4315 H   0  0  0  0  0  0  0  0  0  0  0  0
    5.8599   -2.1745   -0.0192 H   0  0  0  0  0  0  0  0  0  0  0  0
    2.1121   -2.7326   -0.3901 H   0  0  0  0  0  0  0  0  0  0  0  0
    3.0114   -1.3180    0.1101 H   0  0  0  0  0  0  0  0  0  0  0  0
    2.5111   -0.2587   -2.6497 H   0  0  0  0  0  0  0  0  0  0  0  0
    3.9316   -1.0292   -4.8920 H   0  0  0  0  0  0  0  0  0  0  0  0
    5.0017   -4.9270   -2.5182 H   0  0  0  0  0  0  0  0  0  0  0  0
    6.0512   -3.7959   -1.6986 H   0  0  0  0  0  0  0  0  0  0  0  0
    3.3748   -4.8997   -0.7040 H   0  0  0  0  0  0  0  0  0  0  0  0
    5.3806   -6.2890   -0.2037 H   0  0  0  0  0  0  0  0  0  0  0  0
    4.5641   -5.7241    1.2400 H   0  0  0  0  0  0  0  0  0  0  0  0
    3.5211   -3.5002    1.1268 H   0  0  0  0  0  0  0  0  0  0  0  0
  1  2  1  0
  1 15  1  0
  1 16  1  0
  1 17  1  0
  2 14  1  0
  2  3  1  0
  3  4  1  0
  3 18  1  0
  3 19  1  0
  4  5  1  0
  4 20  1  0
  4 21  1  0
  5 13  1  0
  5  6  1  0
  5 31  1  1
  6  7  1  0
  6 22  1  0
  6 23  1  0
  7 11  1  0
  7  8  2  0
  8  9  1  0
  8 24  1  0
  9 10  2  0
  9 25  1  0
 10 11  1  0
 11 12  1  0
 12 13  1  0
 12 26  1  0
 12 27  1  0
 13 14  1  0
 13 28  1  6
 14 29  1  0
 14 30  1  0
M  CHG  1   5   1
M  END
>  <i_m_ct_stereo_status>  (111) 
1

>  <s_m_source_file>  (111) 
/var/tmp/pbs.5076255.sched01/tmp5eg4wc32/41mqp692j8.sdf

>  <i_m_source_file_index>  (111) 
8

>  <i_lp_mmshare_version>  (111) 
48012

>  <i_f3d_flags>  (111) 
0

>  <s_epik_input>  (111) 
W0NIMl0xW0NIMl1OKFtDSDNdKVtDSDJdW0NAQEhdKE4xMilbQ0gyXW4zYyhbQ0gyXTIpW2NIXVtjSF1uMw==

>  <s_epik_cmdline>  (111) 
J2VwaWtfcHl0aG9uJywgJy1waHQnLCAnMi4wJywgJy1waCcsICc3LjAnLCAnLXRuJywgJzgnLCAnLW1hJywgJzIwMCcsICctaW1hZScsICc8aW5maWxlLm1hZT4nLCAnLW9tYWUnLCAnPG91dGZpbGUubWFlPic=

>  <r_epik_Ionization_Penalty>  (111) 
0.866146

>  <r_epik_Ionization_Penalty_Charging>  (111) 
0.865849

>  <r_epik_Ionization_Penalty_Neutral>  (111) 
0.000296778

>  <r_epik_State_Penalty>  (111) 
1.738

>  <r_epik_Charging_Adjusted_Penalty>  (111) 
2.60385

>  <i_epik_Tot_Q>  (111) 
1

>  <i_epik_Tot_abs_Q>  (111) 
1

>  <s_lp_Force_Field>  (111) 
OPLS3e

>  <r_lp_Energy>  (111) 
28.1467

>  <b_lp_Chiralities_Consistent>  (111) 
1

>  <s_lp_Variant>  (111) 
32:0-3

>  <s_i_glide_gridfile>  (111) 
pfpi4k_grid

>  <i_i_glide_lignum>  (111) 
8

>  <i_i_glide_rotatable_bonds>  (111) 
0

>  <r_i_docking_score>  (111) 
-4.19602

>  <r_i_glide_ligand_efficiency>  (111) 
-0.299715

>  <r_i_glide_ligand_efficiency_sa>  (111) 
-0.722357

>  <r_i_glide_ligand_efficiency_ln>  (111) 
-1.15305

>  <r_i_glide_gscore>  (111) 
-4.19602

>  <r_i_glide_lipo>  (111) 
-0.367374

>  <r_i_glide_hbond>  (111) 
0

>  <r_i_glide_metal>  (111) 
-0

>  <r_i_glide_rewards>  (111) 
-2.10216

>  <r_i_glide_evdw>  (111) 
-16.8184

>  <r_i_glide_ecoul>  (111) 
-5.90375

>  <r_i_glide_erotb>  (111) 
0

>  <r_i_glide_esite>  (111) 
0

>  <r_i_glide_emodel>  (111) 
-28.8743

>  <r_i_glide_energy>  (111) 
-22.7222

>  <r_i_glide_einternal>  (111) 
0

>  <r_i_glide_intrahb_reward>  (111) 
-0

>  <i_i_glide_confnum>  (111) 
1

>  <i_i_glide_posenum>  (111) 
10

>  <r_i_glide_eff_state_penalty>  (111) 
0

>  <ligand_id>  (111) 
32

>  <original_smiles>  (111) 
CN1CCN2Cc3ccnn3CC2C1

>  <smiles>  (111) 
[H]c1nn2c(c1[H])C([H])([H])[N+]1([H])C([H])([H])C([H])([H])N(C([H])([H])[H])C([H])([H])C1([H])C2([H])[H]

$$$$
33:0:0
     RDKit          3D

 66 72  0  0  1  0  0  0  0  0999 V2000
    0.7519   -5.3646    4.9970 C   0  0  0  0  0  0  0  0  0  0  0  0
    1.2309   -6.1316    4.0059 C   0  0  0  0  0  0  0  0  0  0  0  0
    2.3191   -5.7469    2.9978 C   0  0  1  0  0  0  0  0  0  0  0  0
    3.4410   -6.7337    3.0927 C   0  0  0  0  0  0  0  0  0  0  0  0
    4.5498   -6.2298    2.1777 C   0  0  1  0  0  0  0  0  0  0  0  0
    3.9644   -6.2965    0.7467 C   0  0  0  0  0  0  0  0  0  0  0  0
    4.4409   -7.1619    0.0169 O   0  0  0  0  0  0  0  0  0  0  0  0
    2.6666   -5.5245    0.3078 C   0  0  1  0  0  0  0  0  0  0  0  0
    1.7037   -5.7848    1.5436 C   0  0  1  0  0  0  0  0  0  0  0  0
    0.9806   -6.9862    1.3030 O   0  0  0  0  0  0  0  0  0  0  0  0
    2.8055   -4.0597   -0.4938 C   0  0  1  0  0  0  0  0  0  0  0  0
    1.6501   -3.4607   -1.0552 O   0  0  0  0  0  0  0  0  0  0  0  0
    3.8554   -3.0967    0.1592 C   0  0  2  0  0  0  0  0  0  0  0  0
    2.9963   -3.1819    1.5257 C   0  0  0  0  0  0  0  0  0  0  0  0
    3.6477   -3.4910    2.8138 C   0  0  1  0  0  0  0  0  0  0  0  0
    3.1065   -2.5554    3.9632 C   0  0  0  0  0  0  0  0  0  0  0  0
    2.9861   -4.5760    3.5037 O   0  0  0  0  0  0  0  0  0  0  0  0
    5.2244   -3.3886    2.6331 C   0  0  1  0  0  0  0  0  0  0  0  0
    5.1080   -1.8739    1.9144 C   0  0  1  0  0  0  0  0  0  0  0  0
    6.1888   -1.0081    2.1211 O   0  0  0  0  0  0  0  0  0  0  0  0
    4.2336   -1.6340    0.5637 C   0  0  1  0  0  0  0  0  0  0  0  0
    4.9476   -0.7960   -0.3120 O   0  0  0  0  0  0  0  0  0  0  0  0
    4.5278   -0.8258   -1.6162 C   0  0  0  0  0  0  0  0  0  0  0  0
    5.4132   -1.5830   -2.3220 O   0  0  0  0  0  0  0  0  0  0  0  0
    5.2929   -2.9552   -2.0938 C   0  0  0  0  0  0  0  0  0  0  0  0
    5.2472   -3.4724   -0.6110 C   0  0  2  0  0  0  0  0  0  0  0  0
    5.3689   -4.8025   -1.0318 O   0  0  0  0  0  0  0  0  0  0  0  0
    6.5885   -3.3252    0.1026 C   0  0  1  0  0  0  0  0  0  0  0  0
    7.3108   -2.1168   -0.0895 O   0  0  0  0  0  0  0  0  0  0  0  0
    6.4644   -3.6838    1.5919 C   0  0  2  0  0  0  0  0  0  0  0  0
    6.7388   -5.0966    1.8612 C   0  0  1  0  0  0  0  0  0  0  0  0
    7.9712   -5.4699    2.4546 O   0  0  0  0  0  0  0  0  0  0  0  0
    5.5040   -5.0349    2.6874 C   0  0  2  0  0  0  0  0  0  0  0  0
    5.8089   -5.3821    4.1661 C   0  0  0  0  0  0  0  0  0  0  0  0
    1.1000   -4.3594    5.1699 H   0  0  0  0  0  0  0  0  0  0  0  0
   -0.0021   -5.7457    5.6667 H   0  0  0  0  0  0  0  0  0  0  0  0
    0.8170   -7.1274    3.8991 H   0  0  0  0  0  0  0  0  0  0  0  0
    3.7539   -6.8997    4.1209 H   0  0  0  0  0  0  0  0  0  0  0  0
    3.0954   -7.7040    2.7365 H   0  0  0  0  0  0  0  0  0  0  0  0
    5.2227   -7.0923    2.1559 H   0  0  0  0  0  0  0  0  0  0  0  0
    2.2164   -6.1401   -0.4651 H   0  0  0  0  0  0  0  0  0  0  0  0
    0.8891   -5.0961    1.6203 H   0  0  0  0  0  0  0  0  0  0  0  0
    1.5578   -7.7420    1.3609 H   0  0  0  0  0  0  0  0  0  0  0  0
    3.1410   -4.2728   -1.4928 H   0  0  0  0  0  0  0  0  0  0  0  0
    1.7086   -2.4946   -1.0114 H   0  0  0  0  0  0  0  0  0  0  0  0
    2.4553   -2.2513    1.7538 H   0  0  0  0  0  0  0  0  0  0  0  0
    1.9918   -3.5070    1.4949 H   0  0  0  0  0  0  0  0  0  0  0  0
    3.1452   -1.4702    3.8389 H   0  0  0  0  0  0  0  0  0  0  0  0
    3.5642   -2.7775    4.9340 H   0  0  0  0  0  0  0  0  0  0  0  0
    2.0343   -2.6980    4.0728 H   0  0  0  0  0  0  0  0  0  0  0  0
    4.5640   -1.2210    2.5786 H   0  0  0  0  0  0  0  0  0  0  0  0
    6.8444   -1.2479    1.4707 H   0  0  0  0  0  0  0  0  0  0  0  0
    3.3850   -0.9574    0.7095 H   0  0  0  0  0  0  0  0  0  0  0  0
    3.4821   -1.1193   -1.7669 H   0  0  0  0  0  0  0  0  0  0  0  0
    4.6400    0.1574   -2.0561 H   0  0  0  0  0  0  0  0  0  0  0  0
    4.4329   -3.2599   -2.6977 H   0  0  0  0  0  0  0  0  0  0  0  0
    6.1606   -3.3771   -2.6141 H   0  0  0  0  0  0  0  0  0  0  0  0
    4.6612   -5.0141   -1.6132 H   0  0  0  0  0  0  0  0  0  0  0  0
    7.3129   -4.0141   -0.3491 H   0  0  0  0  0  0  0  0  0  0  0  0
    8.2204   -2.2572    0.1541 H   0  0  0  0  0  0  0  0  0  0  0  0
    7.3084   -3.2104    2.0633 H   0  0  0  0  0  0  0  0  0  0  0  0
    6.6204   -5.7008    0.9767 H   0  0  0  0  0  0  0  0  0  0  0  0
    8.0310   -6.4027    2.4328 H   0  0  0  0  0  0  0  0  0  0  0  0
    6.5871   -4.7401    4.5588 H   0  0  0  0  0  0  0  0  0  0  0  0
    6.1423   -6.4150    4.2877 H   0  0  0  0  0  0  0  0  0  0  0  0
    4.9507   -5.2161    4.8145 H   0  0  0  0  0  0  0  0  0  0  0  0
  1  2  2  0
  1 35  1  0
  1 36  1  0
  3  2  1  1
  2 37  1  0
  3  9  1  0
  3 17  1  0
  3  4  1  0
  4  5  1  0
  4 38  1  0
  4 39  1  0
  5 33  1  0
  5  6  1  0
  5 40  1  6
  6  7  2  0
  6  8  1  0
  8  9  1  0
  8 11  1  0
  8 41  1  6
  9 10  1  0
  9 42  1  1
 10 43  1  0
 11 12  1  0
 11 13  1  0
 11 44  1  6
 12 45  1  0
 13 21  1  0
 13 26  1  0
 13 14  1  1
 14 15  1  0
 14 46  1  0
 14 47  1  0
 15 16  1  1
 15 17  1  0
 18 15  1  6
 16 48  1  0
 16 49  1  0
 16 50  1  0
 18 30  1  0
 18 33  1  0
 18 19  1  0
 19 20  1  0
 19 21  1  0
 19 51  1  1
 20 52  1  0
 21 22  1  0
 21 53  1  1
 22 23  1  0
 23 24  1  0
 23 54  1  0
 23 55  1  0
 24 25  1  0
 25 26  1  0
 25 56  1  0
 25 57  1  0
 26 27  1  6
 26 28  1  0
 27 58  1  0
 28 29  1  0
 28 30  1  0
 28 59  1  6
 29 60  1  0
 30 31  1  0
 30 61  1  1
 31 32  1  0
 31 33  1  0
 31 62  1  6
 32 63  1  0
 33 34  1  1
 34 64  1  0
 34 65  1  0
 34 66  1  0
M  END
>  <i_m_ct_stereo_status>  (112) 
1

>  <s_m_source_file>  (112) 
/var/tmp/pbs.5076255.sched01/tmp5eg4wc32/41mqp692j8.sdf

>  <i_m_source_file_index>  (112) 
9

>  <i_lp_mmshare_version>  (112) 
48012

>  <i_f3d_flags>  (112) 
0

>  <s_epik_input>  (112) 
QzEyM1tDQEhdNFtDQEhdKFtPSF0pQzU2W0NAXShbQ0gyXTIpKFtDSDNdKU9bQ0BdNyhbQ0hdPVtDSDJdKVtDSDJdW0NAQEhdKEMoPU8pW0NAQEhdKFtDQEhdN1tPSF0pW0NASF0xW09IXSlbQ0BAXTYoW0NIM10pW0NASF0oW09IXSlbQ0BIXTVbQ0BIXShbT0hdKVtDQF0zKFtPSF0pW0NIMl1PW0NIMl1PNA==

>  <s_epik_cmdline>  (112) 
J2VwaWtfcHl0aG9uJywgJy1waHQnLCAnMi4wJywgJy1waCcsICc3LjAnLCAnLXRuJywgJzgnLCAnLW1hJywgJzIwMCcsICctaW1hZScsICc8aW5maWxlLm1hZT4nLCAnLW9tYWUnLCAnPG91dGZpbGUubWFlPic=

>  <r_lp_tautomer_probability>  (112) 
1

>  <r_epik_Ionization_Penalty>  (112) 
1.27171e-06

>  <r_epik_Ionization_Penalty_Charging>  (112) 
0

>  <r_epik_Ionization_Penalty_Neutral>  (112) 
1.27171e-06

>  <r_epik_State_Penalty>  (112) 
-0

>  <r_epik_Charging_Adjusted_Penalty>  (112) 
0

>  <i_epik_Tot_Q>  (112) 
0

>  <i_epik_Tot_abs_Q>  (112) 
0

>  <s_epik_Chemistry_Notes>  (112) 
This compound contains an acetal/aminal-like group ( X-CH(R)-Y where X, Y are N, S, or O) that may be acid/base labile, releasing an aldehyde.

>  <s_lp_Force_Field>  (112) 
OPLS3e

>  <r_lp_Energy>  (112) 
411.474

>  <b_lp_Chiralities_Consistent>  (112) 
1

>  <s_lp_Variant>  (112) 
33:0-1

>  <s_i_glide_gridfile>  (112) 
pfpi4k_grid

>  <i_i_glide_lignum>  (112) 
9

>  <i_i_glide_rotatable_bonds>  (112) 
7

>  <r_i_docking_score>  (112) 
-3.63962

>  <r_i_glide_ligand_efficiency>  (112) 
-0.107048

>  <r_i_glide_ligand_efficiency_sa>  (112) 
-0.346793

>  <r_i_glide_ligand_efficiency_ln>  (112) 
-0.804095

>  <r_i_glide_gscore>  (112) 
-3.63962

>  <r_i_glide_lipo>  (112) 
-0.542701

>  <r_i_glide_hbond>  (112) 
-0.193561

>  <r_i_glide_metal>  (112) 
-0

>  <r_i_glide_rewards>  (112) 
-0.760209

>  <r_i_glide_evdw>  (112) 
-14.1529

>  <r_i_glide_ecoul>  (112) 
-9.85555

>  <r_i_glide_erotb>  (112) 
0.0878339

>  <r_i_glide_esite>  (112) 
-0.0450081

>  <r_i_glide_emodel>  (112) 
-31.6083

>  <r_i_glide_energy>  (112) 
-24.0085

>  <r_i_glide_einternal>  (112) 
2.28958

>  <r_i_glide_intrahb_reward>  (112) 
-0.5

>  <i_i_glide_confnum>  (112) 
1

>  <i_i_glide_posenum>  (112) 
3

>  <r_i_glide_eff_state_penalty>  (112) 
0

>  <ligand_id>  (112) 
33

>  <original_smiles>  (112) 
C=CC12CC3C(=O)C(C1O)C(O)C14CC(C)(O2)C25C(O)C1OCOCC4(O)C(O)C2C(O)C35C

>  <smiles>  (112) 
[H]OC1([H])C2([H])C(=O)C3([H])C([H])([H])C1(C([H])=C([H])[H])OC1(C([H])([H])[H])C([H])([H])C4(C5([H])OC([H])([H])OC([H])([H])C4(O[H])C([H])(O[H])C4([H])C([H])(O[H])C3(C([H])([H])[H])C41C5([H])O[H])C2([H])O[H]

$$$$
33:0:1
     RDKit          3D

 66 72  0  0  1  0  0  0  0  0999 V2000
    0.9225   -9.4492    6.4430 C   0  0  0  0  0  0  0  0  0  0  0  0
    1.4467   -9.8389    5.2770 C   0  0  0  0  0  0  0  0  0  0  0  0
    2.2531   -8.9789    4.3012 C   0  0  1  0  0  0  0  0  0  0  0  0
    3.5899   -9.6529    4.0703 C   0  0  0  0  0  0  0  0  0  0  0  0
    4.4495   -8.7210    3.2287 C   0  0  1  0  0  0  0  0  0  0  0  0
    3.7056   -8.6167    1.8567 C   0  0  0  0  0  0  0  0  0  0  0  0
    4.2413   -9.0735    0.8617 O   0  0  0  0  0  0  0  0  0  0  0  0
    2.2117   -8.1385    1.7536 C   0  0  1  0  0  0  0  0  0  0  0  0
    1.4461   -8.8494    2.9377 C   0  0  1  0  0  0  0  0  0  0  0  0
    1.0986  -10.1522    2.4761 O   0  0  0  0  0  0  0  0  0  0  0  0
    1.9081   -6.5730    1.3329 C   0  0  1  0  0  0  0  0  0  0  0  0
    0.5104   -6.2706    1.2891 O   0  0  0  0  0  0  0  0  0  0  0  0
    2.8376   -5.5329    2.0864 C   0  0  2  0  0  0  0  0  0  0  0  0
    2.2105   -6.0782    3.4841 C   0  0  0  0  0  0  0  0  0  0  0  0
    3.0734   -6.4881    4.6021 C   0  0  1  0  0  0  0  0  0  0  0  0
    2.4818   -6.0021    5.9810 C   0  0  0  0  0  0  0  0  0  0  0  0
    2.7449   -7.8352    5.0391 O   0  0  0  0  0  0  0  0  0  0  0  0
    4.5428   -5.9582    4.3479 C   0  0  1  0  0  0  0  0  0  0  0  0
    4.0088   -4.4034    4.0174 C   0  0  1  0  0  0  0  0  0  0  0  0
    4.8856   -3.3424    4.3361 O   0  0  0  0  0  0  0  0  0  0  0  0
    2.9445   -4.1330    2.8209 C   0  0  1  0  0  0  0  0  0  0  0  0
    3.3709   -2.9640    2.1351 O   0  0  0  0  0  0  0  0  0  0  0  0
    2.8252   -2.7472    0.8995 C   0  0  0  0  0  0  0  0  0  0  0  0
    3.7548   -3.1069   -0.0319 O   0  0  0  0  0  0  0  0  0  0  0  0
    3.9200   -4.5024   -0.1441 C   0  0  0  0  0  0  0  0  0  0  0  0
    4.1818   -5.3790    1.1529 C   0  0  2  0  0  0  0  0  0  0  0  0
    4.5724   -6.4754    0.3807 O   0  0  0  0  0  0  0  0  0  0  0  0
    5.5329   -5.0317    1.8285 C   0  0  1  0  0  0  0  0  0  0  0  0
    5.8760   -3.6491    1.8562 O   0  0  0  0  0  0  0  0  0  0  0  0
    5.6894   -5.6881    3.2051 C   0  0  2  0  0  0  0  0  0  0  0  0
    6.2969   -7.0166    3.1035 C   0  0  1  0  0  0  0  0  0  0  0  0
    7.6338   -7.1483    3.5531 O   0  0  0  0  0  0  0  0  0  0  0  0
    5.1794   -7.4636    3.9678 C   0  0  2  0  0  0  0  0  0  0  0  0
    5.7300   -8.0505    5.2827 C   0  0  0  0  0  0  0  0  0  0  0  0
    1.0146   -8.4423    6.8110 H   0  0  0  0  0  0  0  0  0  0  0  0
    0.3841  -10.1587    7.0502 H   0  0  0  0  0  0  0  0  0  0  0  0
    1.3031  -10.8755    4.9837 H   0  0  0  0  0  0  0  0  0  0  0  0
    4.0652   -9.9575    5.0008 H   0  0  0  0  0  0  0  0  0  0  0  0
    3.4434  -10.5897    3.5296 H   0  0  0  0  0  0  0  0  0  0  0  0
    5.2886   -9.3643    2.9585 H   0  0  0  0  0  0  0  0  0  0  0  0
    1.8533   -8.6686    0.8775 H   0  0  0  0  0  0  0  0  0  0  0  0
    0.4661   -8.4111    3.1095 H   0  0  0  0  0  0  0  0  0  0  0  0
    0.6321  -10.0843    1.6575 H   0  0  0  0  0  0  0  0  0  0  0  0
    2.1195   -6.5242    0.2689 H   0  0  0  0  0  0  0  0  0  0  0  0
    0.0764   -7.0464    0.9747 H   0  0  0  0  0  0  0  0  0  0  0  0
    1.5099   -5.3817    3.9507 H   0  0  0  0  0  0  0  0  0  0  0  0
    1.3114   -6.6464    3.4952 H   0  0  0  0  0  0  0  0  0  0  0  0
    2.2690   -4.9442    6.1164 H   0  0  0  0  0  0  0  0  0  0  0  0
    3.1060   -6.3154    6.8190 H   0  0  0  0  0  0  0  0  0  0  0  0
    1.4912   -6.4265    6.1231 H   0  0  0  0  0  0  0  0  0  0  0  0
    3.4236   -4.0671    4.8424 H   0  0  0  0  0  0  0  0  0  0  0  0
    5.6523   -3.4098    3.7567 H   0  0  0  0  0  0  0  0  0  0  0  0
    1.9957   -3.7141    3.1610 H   0  0  0  0  0  0  0  0  0  0  0  0
    1.8568   -3.2541    0.7495 H   0  0  0  0  0  0  0  0  0  0  0  0
    2.6457   -1.6779    0.7859 H   0  0  0  0  0  0  0  0  0  0  0  0
    3.0526   -4.8584   -0.6885 H   0  0  0  0  0  0  0  0  0  0  0  0
    4.7645   -4.5830   -0.8271 H   0  0  0  0  0  0  0  0  0  0  0  0
    4.0287   -6.5335   -0.3961 H   0  0  0  0  0  0  0  0  0  0  0  0
    6.3499   -5.3834    1.1813 H   0  0  0  0  0  0  0  0  0  0  0  0
    5.0650   -3.1581    2.0215 H   0  0  0  0  0  0  0  0  0  0  0  0
    6.4614   -5.1285    3.7420 H   0  0  0  0  0  0  0  0  0  0  0  0
    6.2272   -7.4390    2.1115 H   0  0  0  0  0  0  0  0  0  0  0  0
    8.1967   -7.0704    2.7907 H   0  0  0  0  0  0  0  0  0  0  0  0
    6.4025   -7.3259    5.7723 H   0  0  0  0  0  0  0  0  0  0  0  0
    6.3095   -8.9614    5.1293 H   0  0  0  0  0  0  0  0  0  0  0  0
    4.9553   -8.2497    6.0245 H   0  0  0  0  0  0  0  0  0  0  0  0
  1  2  2  0
  1 35  1  0
  1 36  1  0
  3  2  1  1
  2 37  1  0
  3  9  1  0
  3 17  1  0
  3  4  1  0
  4  5  1  0
  4 38  1  0
  4 39  1  0
  5 33  1  0
  5  6  1  0
  5 40  1  6
  6  7  2  0
  6  8  1  0
  8  9  1  0
  8 11  1  0
  8 41  1  6
  9 10  1  0
  9 42  1  1
 10 43  1  0
 11 12  1  0
 11 13  1  0
 11 44  1  6
 12 45  1  0
 13 21  1  0
 13 26  1  0
 13 14  1  1
 14 15  1  0
 14 46  1  0
 14 47  1  0
 15 16  1  1
 15 17  1  0
 18 15  1  6
 16 48  1  0
 16 49  1  0
 16 50  1  0
 18 30  1  0
 18 33  1  0
 18 19  1  0
 19 20  1  0
 19 21  1  0
 19 51  1  1
 20 52  1  0
 21 22  1  0
 21 53  1  1
 22 23  1  0
 23 24  1  0
 23 54  1  0
 23 55  1  0
 24 25  1  0
 25 26  1  0
 25 56  1  0
 25 57  1  0
 26 27  1  6
 26 28  1  0
 27 58  1  0
 28 29  1  0
 28 30  1  0
 28 59  1  6
 29 60  1  0
 30 31  1  0
 30 61  1  1
 31 32  1  0
 31 33  1  0
 31 62  1  6
 32 63  1  0
 33 34  1  1
 34 64  1  0
 34 65  1  0
 34 66  1  0
M  END
>  <i_m_ct_stereo_status>  (113) 
1

>  <s_m_source_file>  (113) 
/var/tmp/pbs.5076255.sched01/tmp5eg4wc32/41mqp692j8.sdf

>  <i_m_source_file_index>  (113) 
9

>  <i_lp_mmshare_version>  (113) 
48012

>  <i_f3d_flags>  (113) 
0

>  <s_epik_input>  (113) 
QzEyM1tDQEhdNFtDQEhdKFtPSF0pQzU2W0NAXShbQ0gyXTIpKFtDSDNdKU9bQ0BdNyhbQ0hdPVtDSDJdKVtDSDJdW0NAQEhdKEMoPU8pW0NAQEhdKFtDQEhdN1tPSF0pW0NASF0xW09IXSlbQ0BAXTYoW0NIM10pW0NASF0oW09IXSlbQ0BIXTVbQ0BIXShbT0hdKVtDQF0zKFtPSF0pW0NIMl1PW0NIMl1PNA==

>  <s_epik_cmdline>  (113) 
J2VwaWtfcHl0aG9uJywgJy1waHQnLCAnMi4wJywgJy1waCcsICc3LjAnLCAnLXRuJywgJzgnLCAnLW1hJywgJzIwMCcsICctaW1hZScsICc8aW5maWxlLm1hZT4nLCAnLW9tYWUnLCAnPG91dGZpbGUubWFlPic=

>  <r_lp_tautomer_probability>  (113) 
1

>  <r_epik_Ionization_Penalty>  (113) 
1.27171e-06

>  <r_epik_Ionization_Penalty_Charging>  (113) 
0

>  <r_epik_Ionization_Penalty_Neutral>  (113) 
1.27171e-06

>  <r_epik_State_Penalty>  (113) 
-0

>  <r_epik_Charging_Adjusted_Penalty>  (113) 
0

>  <i_epik_Tot_Q>  (113) 
0

>  <i_epik_Tot_abs_Q>  (113) 
0

>  <s_epik_Chemistry_Notes>  (113) 
This compound contains an acetal/aminal-like group ( X-CH(R)-Y where X, Y are N, S, or O) that may be acid/base labile, releasing an aldehyde.

>  <s_lp_Force_Field>  (113) 
OPLS3e

>  <r_lp_Energy>  (113) 
411.474

>  <b_lp_Chiralities_Consistent>  (113) 
1

>  <s_lp_Variant>  (113) 
33:0-1

>  <s_i_glide_gridfile>  (113) 
pfpi4k_grid

>  <i_i_glide_lignum>  (113) 
9

>  <i_i_glide_rotatable_bonds>  (113) 
7

>  <r_i_docking_score>  (113) 
-3.62901

>  <r_i_glide_ligand_efficiency>  (113) 
-0.106736

>  <r_i_glide_ligand_efficiency_sa>  (113) 
-0.345782

>  <r_i_glide_ligand_efficiency_ln>  (113) 
-0.80175

>  <r_i_glide_gscore>  (113) 
-3.62901

>  <r_i_glide_lipo>  (113) 
-0.084766

>  <r_i_glide_hbond>  (113) 
-0.447188

>  <r_i_glide_metal>  (113) 
-0

>  <r_i_glide_rewards>  (113) 
-0.632921

>  <r_i_glide_evdw>  (113) 
-22.2475

>  <r_i_glide_ecoul>  (113) 
-9.2239

>  <r_i_glide_erotb>  (113) 
0.0878339

>  <r_i_glide_esite>  (113) 
-0.0560094

>  <r_i_glide_emodel>  (113) 
-41.1604

>  <r_i_glide_energy>  (113) 
-31.4714

>  <r_i_glide_einternal>  (113) 
2.62857

>  <r_i_glide_intrahb_reward>  (113) 
-0.5

>  <i_i_glide_confnum>  (113) 
3

>  <i_i_glide_posenum>  (113) 
32

>  <r_i_glide_eff_state_penalty>  (113) 
0

>  <ligand_id>  (113) 
33

>  <original_smiles>  (113) 
C=CC12CC3C(=O)C(C1O)C(O)C14CC(C)(O2)C25C(O)C1OCOCC4(O)C(O)C2C(O)C35C

>  <smiles>  (113) 
[H]OC1([H])C2([H])C(=O)C3([H])C([H])([H])C1(C([H])=C([H])[H])OC1(C([H])([H])[H])C([H])([H])C4(C5([H])OC([H])([H])OC([H])([H])C4(O[H])C([H])(O[H])C4([H])C([H])(O[H])C3(C([H])([H])[H])C41C5([H])O[H])C2([H])O[H]

$$$$
33:0:2
     RDKit          3D

 66 72  0  0  1  0  0  0  0  0999 V2000
   -0.5702   -5.2339    6.2252 C   0  0  0  0  0  0  0  0  0  0  0  0
    0.4814   -5.8531    5.6600 C   0  0  0  0  0  0  0  0  0  0  0  0
    1.6512   -5.1793    4.9391 C   0  0  1  0  0  0  0  0  0  0  0  0
    2.8386   -5.1685    5.8723 C   0  0  0  0  0  0  0  0  0  0  0  0
    3.9434   -4.3449    5.2187 C   0  0  1  0  0  0  0  0  0  0  0  0
    4.3472   -5.1764    3.9561 C   0  0  0  0  0  0  0  0  0  0  0  0
    5.4525   -5.7184    3.9414 O   0  0  0  0  0  0  0  0  0  0  0  0
    3.3105   -5.5506    2.8362 C   0  0  1  0  0  0  0  0  0  0  0  0
    2.0048   -6.0010    3.6106 C   0  0  1  0  0  0  0  0  0  0  0  0
    2.1972   -7.3674    3.9484 O   0  0  0  0  0  0  0  0  0  0  0  0
    3.2360   -4.6337    1.4688 C   0  0  1  0  0  0  0  0  0  0  0  0
    2.2250   -5.0572    0.5530 O   0  0  0  0  0  0  0  0  0  0  0  0
    3.2787   -3.0763    1.7775 C   0  0  2  0  0  0  0  0  0  0  0  0
    1.9277   -3.2603    2.6607 C   0  0  0  0  0  0  0  0  0  0  0  0
    1.7914   -2.7115    4.0189 C   0  0  1  0  0  0  0  0  0  0  0  0
    0.3583   -2.0863    4.2505 C   0  0  0  0  0  0  0  0  0  0  0  0
    1.4020   -3.7541    4.9452 O   0  0  0  0  0  0  0  0  0  0  0  0
    2.9772   -1.6864    4.2597 C   0  0  1  0  0  0  0  0  0  0  0  0
    2.6627   -0.8620    2.8381 C   0  0  1  0  0  0  0  0  0  0  0  0
    3.0157    0.5142    2.7915 O   0  0  0  0  0  0  0  0  0  0  0  0
    2.7292   -1.6376    1.4106 C   0  0  1  0  0  0  0  0  0  0  0  0
    3.3845   -0.7842    0.4888 O   0  0  0  0  0  0  0  0  0  0  0  0
    3.8038   -1.3692   -0.6855 C   0  0  0  0  0  0  0  0  0  0  0  0
    5.1544   -1.5896   -0.5865 O   0  0  0  0  0  0  0  0  0  0  0  0
    5.4861   -2.6275    0.3132 C   0  0  0  0  0  0  0  0  0  0  0  0
    4.8685   -2.6752    1.7757 C   0  0  2  0  0  0  0  0  0  0  0  0
    5.7749   -3.6727    2.1639 O   0  0  0  0  0  0  0  0  0  0  0  0
    5.3364   -1.4870    2.6458 C   0  0  1  0  0  0  0  0  0  0  0  0
    5.4664   -0.2587    1.9620 O   0  0  0  0  0  0  0  0  0  0  0  0
    4.5610   -1.3700    3.9708 C   0  0  2  0  0  0  0  0  0  0  0  0
    5.1770   -2.1614    5.0428 C   0  0  1  0  0  0  0  0  0  0  0  0
    5.8293   -1.4647    6.0864 O   0  0  0  0  0  0  0  0  0  0  0  0
    3.8239   -2.7208    5.2701 C   0  0  2  0  0  0  0  0  0  0  0  0
    3.3702   -2.3883    6.7115 C   0  0  0  0  0  0  0  0  0  0  0  0
   -0.6748   -4.1597    6.2175 H   0  0  0  0  0  0  0  0  0  0  0  0
   -1.3421   -5.8068    6.7128 H   0  0  0  0  0  0  0  0  0  0  0  0
    0.5115   -6.9313    5.7267 H   0  0  0  0  0  0  0  0  0  0  0  0
    2.5772   -4.8087    6.8647 H   0  0  0  0  0  0  0  0  0  0  0  0
    3.1858   -6.1875    6.0450 H   0  0  0  0  0  0  0  0  0  0  0  0
    4.7925   -4.5520    5.8702 H   0  0  0  0  0  0  0  0  0  0  0  0
    3.7078   -6.4819    2.4301 H   0  0  0  0  0  0  0  0  0  0  0  0
    1.1417   -6.0602    2.9477 H   0  0  0  0  0  0  0  0  0  0  0  0
    2.2773   -7.8739    3.1530 H   0  0  0  0  0  0  0  0  0  0  0  0
    4.1212   -4.9230    0.9059 H   0  0  0  0  0  0  0  0  0  0  0  0
    2.5342   -4.8890   -0.3288 H   0  0  0  0  0  0  0  0  0  0  0  0
    1.0527   -2.8277    2.1856 H   0  0  0  0  0  0  0  0  0  0  0  0
    1.3116   -4.1186    2.5309 H   0  0  0  0  0  0  0  0  0  0  0  0
    0.0087   -1.3117    3.5724 H   0  0  0  0  0  0  0  0  0  0  0  0
    0.2471   -1.6918    5.2615 H   0  0  0  0  0  0  0  0  0  0  0  0
   -0.4138   -2.8477    4.1184 H   0  0  0  0  0  0  0  0  0  0  0  0
    1.6359   -0.5456    2.8402 H   0  0  0  0  0  0  0  0  0  0  0  0
    2.5010    0.9334    2.1195 H   0  0  0  0  0  0  0  0  0  0  0  0
    1.7802   -1.6453    0.8840 H   0  0  0  0  0  0  0  0  0  0  0  0
    3.2506   -2.2731   -0.9483 H   0  0  0  0  0  0  0  0  0  0  0  0
    3.6584   -0.6490   -1.4916 H   0  0  0  0  0  0  0  0  0  0  0  0
    5.3027   -3.5549   -0.2259 H   0  0  0  0  0  0  0  0  0  0  0  0
    6.5726   -2.5285    0.3680 H   0  0  0  0  0  0  0  0  0  0  0  0
    6.6518   -3.3513    2.0366 H   0  0  0  0  0  0  0  0  0  0  0  0
    6.3918   -1.6128    2.8788 H   0  0  0  0  0  0  0  0  0  0  0  0
    4.6048   -0.0241    1.6366 H   0  0  0  0  0  0  0  0  0  0  0  0
    4.7068   -0.3482    4.3323 H   0  0  0  0  0  0  0  0  0  0  0  0
    5.8620   -2.9117    4.6626 H   0  0  0  0  0  0  0  0  0  0  0  0
    6.0967   -2.1107    6.7190 H   0  0  0  0  0  0  0  0  0  0  0  0
    3.4471   -1.3134    6.8976 H   0  0  0  0  0  0  0  0  0  0  0  0
    3.9779   -2.8838    7.4692 H   0  0  0  0  0  0  0  0  0  0  0  0
    2.3263   -2.6230    6.8973 H   0  0  0  0  0  0  0  0  0  0  0  0
  1  2  2  0
  1 35  1  0
  1 36  1  0
  3  2  1  1
  2 37  1  0
  3  9  1  0
  3 17  1  0
  3  4  1  0
  4  5  1  0
  4 38  1  0
  4 39  1  0
  5 33  1  0
  5  6  1  0
  5 40  1  1
  6  7  2  0
  6  8  1  0
  8  9  1  0
  8 11  1  0
  8 41  1  6
  9 10  1  0
  9 42  1  6
 10 43  1  0
 11 12  1  0
 11 13  1  0
 11 44  1  6
 12 45  1  0
 13 21  1  0
 13 26  1  0
 13 14  1  1
 14 15  1  0
 14 46  1  0
 14 47  1  0
 15 16  1  6
 15 17  1  0
 18 15  1  6
 16 48  1  0
 16 49  1  0
 16 50  1  0
 18 30  1  0
 18 33  1  0
 18 19  1  0
 19 20  1  0
 19 21  1  0
 19 51  1  1
 20 52  1  0
 21 22  1  0
 21 53  1  6
 22 23  1  0
 23 24  1  0
 23 54  1  0
 23 55  1  0
 24 25  1  0
 25 26  1  0
 25 56  1  0
 25 57  1  0
 26 27  1  1
 26 28  1  0
 27 58  1  0
 28 29  1  0
 28 30  1  0
 28 59  1  1
 29 60  1  0
 30 31  1  0
 30 61  1  1
 31 32  1  0
 31 33  1  0
 31 62  1  6
 32 63  1  0
 33 34  1  1
 34 64  1  0
 34 65  1  0
 34 66  1  0
M  END
>  <i_m_ct_stereo_status>  (114) 
1

>  <s_m_source_file>  (114) 
/var/tmp/pbs.5076255.sched01/tmp5eg4wc32/41mqp692j8.sdf

>  <i_m_source_file_index>  (114) 
9

>  <i_lp_mmshare_version>  (114) 
48012

>  <i_f3d_flags>  (114) 
0

>  <s_epik_input>  (114) 
QzEyM1tDQEhdNFtDQEhdKFtPSF0pQzU2W0NAXShbQ0gyXTIpKFtDSDNdKU9bQ0BdNyhbQ0hdPVtDSDJdKVtDSDJdW0NAQEhdKEMoPU8pW0NAQEhdKFtDQEhdN1tPSF0pW0NASF0xW09IXSlbQ0BAXTYoW0NIM10pW0NASF0oW09IXSlbQ0BIXTVbQ0BIXShbT0hdKVtDQF0zKFtPSF0pW0NIMl1PW0NIMl1PNA==

>  <s_epik_cmdline>  (114) 
J2VwaWtfcHl0aG9uJywgJy1waHQnLCAnMi4wJywgJy1waCcsICc3LjAnLCAnLXRuJywgJzgnLCAnLW1hJywgJzIwMCcsICctaW1hZScsICc8aW5maWxlLm1hZT4nLCAnLW9tYWUnLCAnPG91dGZpbGUubWFlPic=

>  <r_lp_tautomer_probability>  (114) 
1

>  <r_epik_Ionization_Penalty>  (114) 
1.27171e-06

>  <r_epik_Ionization_Penalty_Charging>  (114) 
0

>  <r_epik_Ionization_Penalty_Neutral>  (114) 
1.27171e-06

>  <r_epik_State_Penalty>  (114) 
-0

>  <r_epik_Charging_Adjusted_Penalty>  (114) 
0

>  <i_epik_Tot_Q>  (114) 
0

>  <i_epik_Tot_abs_Q>  (114) 
0

>  <s_epik_Chemistry_Notes>  (114) 
This compound contains an acetal/aminal-like group ( X-CH(R)-Y where X, Y are N, S, or O) that may be acid/base labile, releasing an aldehyde.

>  <s_lp_Force_Field>  (114) 
OPLS3e

>  <r_lp_Energy>  (114) 
411.474

>  <b_lp_Chiralities_Consistent>  (114) 
1

>  <s_lp_Variant>  (114) 
33:0-1

>  <s_i_glide_gridfile>  (114) 
pfpi4k_grid

>  <i_i_glide_lignum>  (114) 
9

>  <i_i_glide_rotatable_bonds>  (114) 
7

>  <r_i_docking_score>  (114) 
-2.61833

>  <r_i_glide_ligand_efficiency>  (114) 
-0.0770096

>  <r_i_glide_ligand_efficiency_sa>  (114) 
-0.249481

>  <r_i_glide_ligand_efficiency_ln>  (114) 
-0.578462

>  <r_i_glide_gscore>  (114) 
-2.61833

>  <r_i_glide_lipo>  (114) 
-0.333682

>  <r_i_glide_hbond>  (114) 
-0.0183139

>  <r_i_glide_metal>  (114) 
-0

>  <r_i_glide_rewards>  (114) 
-0.633248

>  <r_i_glide_evdw>  (114) 
-17.6138

>  <r_i_glide_ecoul>  (114) 
-5.06417

>  <r_i_glide_erotb>  (114) 
0.0878339

>  <r_i_glide_esite>  (114) 
-0.0806015

>  <r_i_glide_emodel>  (114) 
-30.7192

>  <r_i_glide_energy>  (114) 
-22.678

>  <r_i_glide_einternal>  (114) 
2.9067

>  <r_i_glide_intrahb_reward>  (114) 
-0.5

>  <i_i_glide_confnum>  (114) 
3

>  <i_i_glide_posenum>  (114) 
9

>  <r_i_glide_eff_state_penalty>  (114) 
0

>  <ligand_id>  (114) 
33

>  <original_smiles>  (114) 
C=CC12CC3C(=O)C(C1O)C(O)C14CC(C)(O2)C25C(O)C1OCOCC4(O)C(O)C2C(O)C35C

>  <smiles>  (114) 
[H]OC1([H])C2([H])C(=O)C3([H])C([H])([H])C1(C([H])=C([H])[H])OC1(C([H])([H])[H])C([H])([H])C4(C5([H])OC([H])([H])OC([H])([H])C4(O[H])C([H])(O[H])C4([H])C([H])(O[H])C3(C([H])([H])[H])C41C5([H])O[H])C2([H])O[H]

$$$$
33:1:0
     RDKit          3D

 66 72  0  0  1  0  0  0  0  0999 V2000
    0.1976   -7.0280    1.3382 C   0  0  0  0  0  0  0  0  0  0  0  0
    0.4543   -6.9152    2.6508 C   0  0  0  0  0  0  0  0  0  0  0  0
    1.6317   -7.5472    3.3901 C   0  0  1  0  0  0  0  0  0  0  0  0
    2.4298   -6.3812    4.0489 C   0  0  0  0  0  0  0  0  0  0  0  0
    3.7870   -6.8399    4.6203 C   0  0  1  0  0  0  0  0  0  0  0  0
    3.1629   -7.8452    5.7224 C   0  0  0  0  0  0  0  0  0  0  0  0
    3.3225   -7.5892    6.9102 O   0  0  0  0  0  0  0  0  0  0  0  0
    2.2391   -9.0871    5.3522 C   0  0  1  0  0  0  0  0  0  0  0  0
    1.1229   -8.6035    4.3954 C   0  0  1  0  0  0  0  0  0  0  0  0
    0.0498   -8.0813    5.1689 O   0  0  0  0  0  0  0  0  0  0  0  0
    2.7584  -10.6346    5.2107 C   0  0  1  0  0  0  0  0  0  0  0  0
    1.6071  -11.4292    4.9547 O   0  0  0  0  0  0  0  0  0  0  0  0
    3.9222  -11.1330    4.1111 C   0  0  2  0  0  0  0  0  0  0  0  0
    3.2098  -10.5640    2.8797 C   0  0  0  0  0  0  0  0  0  0  0  0
    3.5280   -9.1410    2.5788 C   0  0  1  0  0  0  0  0  0  0  0  0
    3.6195   -9.1164    1.0017 C   0  0  0  0  0  0  0  0  0  0  0  0
    2.4060   -8.2426    2.4295 O   0  0  0  0  0  0  0  0  0  0  0  0
    4.8189   -8.6926    3.4006 C   0  0  1  0  0  0  0  0  0  0  0  0
    5.3790   -9.3464    4.8457 C   0  0  1  0  0  0  0  0  0  0  0  0
    5.7913   -8.5262    5.9472 O   0  0  0  0  0  0  0  0  0  0  0  0
    4.6092  -10.5626    5.3547 C   0  0  1  0  0  0  0  0  0  0  0  0
    4.9241  -11.7916    6.1203 O   0  0  0  0  0  0  0  0  0  0  0  0
    4.4868  -13.1070    5.7307 C   0  0  0  0  0  0  0  0  0  0  0  0
    5.1788  -13.6994    4.6342 O   0  0  0  0  0  0  0  0  0  0  0  0
    5.2358  -13.0512    3.3290 C   0  0  0  0  0  0  0  0  0  0  0  0
    5.4817  -11.5445    3.5515 C   0  0  2  0  0  0  0  0  0  0  0  0
    6.6859  -11.8735    4.2915 O   0  0  0  0  0  0  0  0  0  0  0  0
    6.3043  -10.5239    2.5232 C   0  0  1  0  0  0  0  0  0  0  0  0
    6.2206  -11.0553    1.2157 O   0  0  0  0  0  0  0  0  0  0  0  0
    5.9958   -8.9260    2.5186 C   0  0  2  0  0  0  0  0  0  0  0  0
    6.4731   -7.5983    3.2947 C   0  0  1  0  0  0  0  0  0  0  0  0
    7.2949   -6.7364    2.5315 O   0  0  0  0  0  0  0  0  0  0  0  0
    4.8954   -7.1955    3.4268 C   0  0  2  0  0  0  0  0  0  0  0  0
    4.6065   -6.2529    2.2144 C   0  0  0  0  0  0  0  0  0  0  0  0
    0.8291   -7.6076    0.6828 H   0  0  0  0  0  0  0  0  0  0  0  0
   -0.6565   -6.5453    0.8933 H   0  0  0  0  0  0  0  0  0  0  0  0
   -0.2108   -6.3245    3.2673 H   0  0  0  0  0  0  0  0  0  0  0  0
    2.5305   -5.5132    3.3982 H   0  0  0  0  0  0  0  0  0  0  0  0
    1.8246   -5.9634    4.8563 H   0  0  0  0  0  0  0  0  0  0  0  0
    4.2003   -6.0153    5.2010 H   0  0  0  0  0  0  0  0  0  0  0  0
    1.6993   -9.1954    6.2933 H   0  0  0  0  0  0  0  0  0  0  0  0
    0.6850   -9.4230    3.8288 H   0  0  0  0  0  0  0  0  0  0  0  0
   -0.4428   -8.8209    5.5005 H   0  0  0  0  0  0  0  0  0  0  0  0
    2.7603  -11.0155    6.2490 H   0  0  0  0  0  0  0  0  0  0  0  0
    1.3516  -11.8343    5.7809 H   0  0  0  0  0  0  0  0  0  0  0  0
    3.5437  -11.1945    2.0802 H   0  0  0  0  0  0  0  0  0  0  0  0
    2.1376  -10.7192    2.8034 H   0  0  0  0  0  0  0  0  0  0  0  0
    4.3294   -9.7978    0.5579 H   0  0  0  0  0  0  0  0  0  0  0  0
    3.8322   -8.1382    0.5780 H   0  0  0  0  0  0  0  0  0  0  0  0
    2.6685   -9.4369    0.5686 H   0  0  0  0  0  0  0  0  0  0  0  0
    6.4270   -9.6065    4.7221 H   0  0  0  0  0  0  0  0  0  0  0  0
    6.2590   -9.0737    6.5604 H   0  0  0  0  0  0  0  0  0  0  0  0
    5.5409  -10.7516    5.8845 H   0  0  0  0  0  0  0  0  0  0  0  0
    4.7213  -13.7499    6.5803 H   0  0  0  0  0  0  0  0  0  0  0  0
    3.4092  -13.1812    5.6043 H   0  0  0  0  0  0  0  0  0  0  0  0
    6.0218  -13.5199    2.7348 H   0  0  0  0  0  0  0  0  0  0  0  0
    4.3007  -13.2259    2.7974 H   0  0  0  0  0  0  0  0  0  0  0  0
    6.4136  -12.5271    4.9274 H   0  0  0  0  0  0  0  0  0  0  0  0
    7.3858  -10.5863    2.6883 H   0  0  0  0  0  0  0  0  0  0  0  0
    5.3253  -11.3707    1.0104 H   0  0  0  0  0  0  0  0  0  0  0  0
    5.9219   -8.5709    1.4920 H   0  0  0  0  0  0  0  0  0  0  0  0
    7.0423   -7.7178    4.2068 H   0  0  0  0  0  0  0  0  0  0  0  0
    8.1462   -7.1428    2.4736 H   0  0  0  0  0  0  0  0  0  0  0  0
    5.2281   -6.4570    1.3449 H   0  0  0  0  0  0  0  0  0  0  0  0
    4.7993   -5.2141    2.4784 H   0  0  0  0  0  0  0  0  0  0  0  0
    3.6065   -6.3048    1.8022 H   0  0  0  0  0  0  0  0  0  0  0  0
  1  2  2  0
  1 35  1  0
  1 36  1  0
  3  2  1  6
  2 37  1  0
  3  9  1  0
  3 17  1  0
  3  4  1  0
  4  5  1  0
  4 38  1  0
  4 39  1  0
  5 33  1  0
  5  6  1  0
  5 40  1  1
  6  7  2  0
  6  8  1  0
  8  9  1  0
  8 11  1  0
  8 41  1  1
  9 10  1  0
  9 42  1  6
 10 43  1  0
 11 12  1  0
 11 13  1  0
 11 44  1  1
 12 45  1  0
 13 21  1  0
 13 26  1  0
 13 14  1  6
 14 15  1  0
 14 46  1  0
 14 47  1  0
 15 16  1  6
 15 17  1  0
 18 15  1  6
 16 48  1  0
 16 49  1  0
 16 50  1  0
 18 30  1  0
 18 33  1  0
 18 19  1  0
 19 20  1  0
 19 21  1  0
 19 51  1  6
 20 52  1  0
 21 22  1  0
 21 53  1  1
 22 23  1  0
 23 24  1  0
 23 54  1  0
 23 55  1  0
 24 25  1  0
 25 26  1  0
 25 56  1  0
 25 57  1  0
 26 27  1  1
 26 28  1  0
 27 58  1  0
 28 29  1  0
 28 30  1  0
 28 59  1  1
 29 60  1  0
 30 31  1  0
 30 61  1  6
 31 32  1  0
 31 33  1  0
 31 62  1  1
 32 63  1  0
 33 34  1  6
 34 64  1  0
 34 65  1  0
 34 66  1  0
M  END
>  <i_m_ct_stereo_status>  (115) 
1

>  <s_m_source_file>  (115) 
/var/tmp/pbs.5076255.sched01/tmp5eg4wc32/41mqp692j8.sdf

>  <i_m_source_file_index>  (115) 
10

>  <i_lp_mmshare_version>  (115) 
48012

>  <i_f3d_flags>  (115) 
0

>  <s_epik_input>  (115) 
QzEyM1tDQEhdNFtDQEhdKFtPSF0pQzU2W0NAXShbQ0gyXTIpKFtDSDNdKU9bQ0BdNyhbQ0hdPVtDSDJdKVtDSDJdW0NAQEhdKEMoPU8pW0NAQEhdKFtDQEhdN1tPSF0pW0NASF0xW09IXSlbQ0BAXTYoW0NIM10pW0NASF0oW09IXSlbQ0BIXTVbQ0BIXShbT0hdKVtDQF0zKFtPSF0pW0NIMl1PW0NIMl1PNA==

>  <s_epik_cmdline>  (115) 
J2VwaWtfcHl0aG9uJywgJy1waHQnLCAnMi4wJywgJy1waCcsICc3LjAnLCAnLXRuJywgJzgnLCAnLW1hJywgJzIwMCcsICctaW1hZScsICc8aW5maWxlLm1hZT4nLCAnLW9tYWUnLCAnPG91dGZpbGUubWFlPic=

>  <r_lp_tautomer_probability>  (115) 
1

>  <r_epik_Ionization_Penalty>  (115) 
1.27171e-06

>  <r_epik_Ionization_Penalty_Charging>  (115) 
0

>  <r_epik_Ionization_Penalty_Neutral>  (115) 
1.27171e-06

>  <r_epik_State_Penalty>  (115) 
-0

>  <r_epik_Charging_Adjusted_Penalty>  (115) 
0

>  <i_epik_Tot_Q>  (115) 
0

>  <i_epik_Tot_abs_Q>  (115) 
0

>  <s_epik_Chemistry_Notes>  (115) 
This compound contains an acetal/aminal-like group ( X-CH(R)-Y where X, Y are N, S, or O) that may be acid/base labile, releasing an aldehyde.

>  <s_lp_Force_Field>  (115) 
OPLS3e

>  <r_lp_Energy>  (115) 
485.169

>  <b_lp_Chiralities_Consistent>  (115) 
1

>  <s_lp_Variant>  (115) 
33:0-2

>  <s_i_glide_gridfile>  (115) 
pfpi4k_grid

>  <i_i_glide_lignum>  (115) 
10

>  <i_i_glide_rotatable_bonds>  (115) 
7

>  <r_i_docking_score>  (115) 
-3.16879

>  <r_i_glide_ligand_efficiency>  (115) 
-0.0931997

>  <r_i_glide_ligand_efficiency_sa>  (115) 
-0.301931

>  <r_i_glide_ligand_efficiency_ln>  (115) 
-0.700075

>  <r_i_glide_gscore>  (115) 
-3.16879

>  <r_i_glide_lipo>  (115) 
-0.0164312

>  <r_i_glide_hbond>  (115) 
-0.15196

>  <r_i_glide_metal>  (115) 
-0

>  <r_i_glide_rewards>  (115) 
-0.132921

>  <r_i_glide_evdw>  (115) 
-20.6659

>  <r_i_glide_ecoul>  (115) 
-12.2998

>  <r_i_glide_erotb>  (115) 
0.0878339

>  <r_i_glide_esite>  (115) 
-0.0770559

>  <r_i_glide_emodel>  (115) 
-38.7538

>  <r_i_glide_energy>  (115) 
-32.9656

>  <r_i_glide_einternal>  (115) 
3.65297

>  <r_i_glide_intrahb_reward>  (115) 
-0

>  <i_i_glide_confnum>  (115) 
1

>  <i_i_glide_posenum>  (115) 
31

>  <r_i_glide_eff_state_penalty>  (115) 
0

>  <ligand_id>  (115) 
33

>  <original_smiles>  (115) 
C=CC12CC3C(=O)C(C1O)C(O)C14CC(C)(O2)C25C(O)C1OCOCC4(O)C(O)C2C(O)C35C

>  <smiles>  (115) 
[H]OC1([H])C2([H])C(=O)C3([H])C([H])([H])C1(C([H])=C([H])[H])OC1(C([H])([H])[H])C([H])([H])C4(C5([H])OC([H])([H])OC([H])([H])C4(O[H])C([H])(O[H])C4([H])C([H])(O[H])C3(C([H])([H])[H])C41C5([H])O[H])C2([H])O[H]

$$$$
33:1:1
     RDKit          3D

 66 72  0  0  1  0  0  0  0  0999 V2000
   -0.5647   -5.9627    5.2963 C   0  0  0  0  0  0  0  0  0  0  0  0
    0.1783   -6.8673    4.6470 C   0  0  0  0  0  0  0  0  0  0  0  0
    1.5039   -6.5952    3.9415 C   0  0  1  0  0  0  0  0  0  0  0  0
    2.5815   -7.4602    4.6642 C   0  0  0  0  0  0  0  0  0  0  0  0
    4.0133   -7.0998    4.2243 C   0  0  1  0  0  0  0  0  0  0  0  0
    3.8292   -7.5181    2.6777 C   0  0  0  0  0  0  0  0  0  0  0  0
    4.5574   -8.3952    2.2221 O   0  0  0  0  0  0  0  0  0  0  0  0
    2.7398   -6.8768    1.7167 C   0  0  1  0  0  0  0  0  0  0  0  0
    1.3722   -6.8937    2.4345 C   0  0  1  0  0  0  0  0  0  0  0  0
    0.7324   -8.1426    2.2146 O   0  0  0  0  0  0  0  0  0  0  0  0
    3.0329   -5.6727    0.6438 C   0  0  1  0  0  0  0  0  0  0  0  0
    1.8119   -5.4539   -0.0622 O   0  0  0  0  0  0  0  0  0  0  0  0
    3.6162   -4.1528    1.0655 C   0  0  2  0  0  0  0  0  0  0  0  0
    2.5201   -3.8367    2.0982 C   0  0  0  0  0  0  0  0  0  0  0  0
    2.7863   -4.3651    3.4685 C   0  0  1  0  0  0  0  0  0  0  0  0
    2.2181   -3.2193    4.3965 C   0  0  0  0  0  0  0  0  0  0  0  0
    1.7578   -5.2021    4.0479 O   0  0  0  0  0  0  0  0  0  0  0  0
    4.3266   -4.7523    3.6077 C   0  0  1  0  0  0  0  0  0  0  0  0
    5.3721   -5.2104    2.3669 C   0  0  1  0  0  0  0  0  0  0  0  0
    6.2809   -6.3234    2.4736 O   0  0  0  0  0  0  0  0  0  0  0  0
    4.7880   -5.1275    0.9578 C   0  0  1  0  0  0  0  0  0  0  0  0
    5.2790   -4.8479   -0.4099 O   0  0  0  0  0  0  0  0  0  0  0  0
    4.6400   -3.9483   -1.3323 C   0  0  0  0  0  0  0  0  0  0  0  0
    4.7504   -2.5537   -1.0713 O   0  0  0  0  0  0  0  0  0  0  0  0
    4.3522   -1.9794    0.2064 C   0  0  0  0  0  0  0  0  0  0  0  0
    4.7817   -2.9413    1.3386 C   0  0  2  0  0  0  0  0  0  0  0  0
    6.1668   -2.8224    0.9095 O   0  0  0  0  0  0  0  0  0  0  0  0
    5.1844   -2.4974    2.8982 C   0  0  1  0  0  0  0  0  0  0  0  0
    4.5235   -1.2833    3.1744 O   0  0  0  0  0  0  0  0  0  0  0  0
    5.0173   -3.5453    4.1434 C   0  0  2  0  0  0  0  0  0  0  0  0
    5.8619   -4.7120    4.8535 C   0  0  1  0  0  0  0  0  0  0  0  0
    6.4039   -4.3841    6.1161 O   0  0  0  0  0  0  0  0  0  0  0  0
    4.5119   -5.6242    4.8152 C   0  0  2  0  0  0  0  0  0  0  0  0
    3.8239   -5.4062    6.2009 C   0  0  0  0  0  0  0  0  0  0  0  0
   -0.2647   -4.9281    5.3766 H   0  0  0  0  0  0  0  0  0  0  0  0
   -1.4940   -6.2552    5.7559 H   0  0  0  0  0  0  0  0  0  0  0  0
   -0.1782   -7.8898    4.6166 H   0  0  0  0  0  0  0  0  0  0  0  0
    2.4717   -7.4648    5.7469 H   0  0  0  0  0  0  0  0  0  0  0  0
    2.3913   -8.5110    4.4357 H   0  0  0  0  0  0  0  0  0  0  0  0
    4.6853   -7.8493    4.6385 H   0  0  0  0  0  0  0  0  0  0  0  0
    2.6215   -7.6885    0.9994 H   0  0  0  0  0  0  0  0  0  0  0  0
    0.6885   -6.1625    2.0090 H   0  0  0  0  0  0  0  0  0  0  0  0
    1.2832   -8.8410    2.5411 H   0  0  0  0  0  0  0  0  0  0  0  0
    3.4343   -6.2031   -0.2439 H   0  0  0  0  0  0  0  0  0  0  0  0
    2.0414   -5.2319   -0.9582 H   0  0  0  0  0  0  0  0  0  0  0  0
    2.4178   -2.7480    2.1089 H   0  0  0  0  0  0  0  0  0  0  0  0
    1.5127   -4.1292    1.8323 H   0  0  0  0  0  0  0  0  0  0  0  0
    2.6269   -2.2284    4.2363 H   0  0  0  0  0  0  0  0  0  0  0  0
    2.3162   -3.4155    5.4635 H   0  0  0  0  0  0  0  0  0  0  0  0
    1.1462   -3.0794    4.2188 H   0  0  0  0  0  0  0  0  0  0  0  0
    6.2552   -4.5742    2.4274 H   0  0  0  0  0  0  0  0  0  0  0  0
    5.7992   -7.1413    2.4231 H   0  0  0  0  0  0  0  0  0  0  0  0
    5.8365   -5.0485    0.6787 H   0  0  0  0  0  0  0  0  0  0  0  0
    5.1756   -4.0886   -2.2693 H   0  0  0  0  0  0  0  0  0  0  0  0
    3.6081   -4.2167   -1.5407 H   0  0  0  0  0  0  0  0  0  0  0  0
    4.7943   -0.9851    0.3054 H   0  0  0  0  0  0  0  0  0  0  0  0
    3.2711   -1.8327    0.2009 H   0  0  0  0  0  0  0  0  0  0  0  0
    6.4578   -1.9450    1.1019 H   0  0  0  0  0  0  0  0  0  0  0  0
    6.2129   -2.1474    2.9660 H   0  0  0  0  0  0  0  0  0  0  0  0
    3.5891   -1.4142    3.1063 H   0  0  0  0  0  0  0  0  0  0  0  0
    4.5593   -3.0355    4.9838 H   0  0  0  0  0  0  0  0  0  0  0  0
    6.7343   -5.0890    4.3400 H   0  0  0  0  0  0  0  0  0  0  0  0
    5.6890   -4.1148    6.6735 H   0  0  0  0  0  0  0  0  0  0  0  0
    4.0198   -4.4300    6.6367 H   0  0  0  0  0  0  0  0  0  0  0  0
    4.1843   -6.1392    6.9231 H   0  0  0  0  0  0  0  0  0  0  0  0
    2.7413   -5.4542    6.2016 H   0  0  0  0  0  0  0  0  0  0  0  0
  1  2  2  0
  1 35  1  0
  1 36  1  0
  3  2  1  1
  2 37  1  0
  3  9  1  0
  3 17  1  0
  3  4  1  0
  4  5  1  0
  4 38  1  0
  4 39  1  0
  5 33  1  0
  5  6  1  0
  5 40  1  1
  6  7  2  0
  6  8  1  0
  8  9  1  0
  8 11  1  0
  8 41  1  6
  9 10  1  0
  9 42  1  6
 10 43  1  0
 11 12  1  0
 11 13  1  0
 11 44  1  6
 12 45  1  0
 13 21  1  0
 13 26  1  0
 13 14  1  1
 14 15  1  0
 14 46  1  0
 14 47  1  0
 15 16  1  1
 15 17  1  0
 18 15  1  6
 16 48  1  0
 16 49  1  0
 16 50  1  0
 18 30  1  0
 18 33  1  0
 18 19  1  0
 19 20  1  0
 19 21  1  0
 19 51  1  6
 20 52  1  0
 21 22  1  0
 21 53  1  6
 22 23  1  0
 23 24  1  0
 23 54  1  0
 23 55  1  0
 24 25  1  0
 25 26  1  0
 25 56  1  0
 25 57  1  0
 26 27  1  6
 26 28  1  0
 27 58  1  0
 28 29  1  0
 28 30  1  0
 28 59  1  6
 29 60  1  0
 30 31  1  0
 30 61  1  1
 31 32  1  0
 31 33  1  0
 31 62  1  6
 32 63  1  0
 33 34  1  1
 34 64  1  0
 34 65  1  0
 34 66  1  0
M  END
>  <i_m_ct_stereo_status>  (116) 
1

>  <s_m_source_file>  (116) 
/var/tmp/pbs.5076255.sched01/tmp5eg4wc32/41mqp692j8.sdf

>  <i_m_source_file_index>  (116) 
10

>  <i_lp_mmshare_version>  (116) 
48012

>  <i_f3d_flags>  (116) 
0

>  <s_epik_input>  (116) 
QzEyM1tDQEhdNFtDQEhdKFtPSF0pQzU2W0NAXShbQ0gyXTIpKFtDSDNdKU9bQ0BdNyhbQ0hdPVtDSDJdKVtDSDJdW0NAQEhdKEMoPU8pW0NAQEhdKFtDQEhdN1tPSF0pW0NASF0xW09IXSlbQ0BAXTYoW0NIM10pW0NASF0oW09IXSlbQ0BIXTVbQ0BIXShbT0hdKVtDQF0zKFtPSF0pW0NIMl1PW0NIMl1PNA==

>  <s_epik_cmdline>  (116) 
J2VwaWtfcHl0aG9uJywgJy1waHQnLCAnMi4wJywgJy1waCcsICc3LjAnLCAnLXRuJywgJzgnLCAnLW1hJywgJzIwMCcsICctaW1hZScsICc8aW5maWxlLm1hZT4nLCAnLW9tYWUnLCAnPG91dGZpbGUubWFlPic=

>  <r_lp_tautomer_probability>  (116) 
1

>  <r_epik_Ionization_Penalty>  (116) 
1.27171e-06

>  <r_epik_Ionization_Penalty_Charging>  (116) 
0

>  <r_epik_Ionization_Penalty_Neutral>  (116) 
1.27171e-06

>  <r_epik_State_Penalty>  (116) 
-0

>  <r_epik_Charging_Adjusted_Penalty>  (116) 
0

>  <i_epik_Tot_Q>  (116) 
0

>  <i_epik_Tot_abs_Q>  (116) 
0

>  <s_epik_Chemistry_Notes>  (116) 
This compound contains an acetal/aminal-like group ( X-CH(R)-Y where X, Y are N, S, or O) that may be acid/base labile, releasing an aldehyde.

>  <s_lp_Force_Field>  (116) 
OPLS3e

>  <r_lp_Energy>  (116) 
485.169

>  <b_lp_Chiralities_Consistent>  (116) 
1

>  <s_lp_Variant>  (116) 
33:0-2

>  <s_i_glide_gridfile>  (116) 
pfpi4k_grid

>  <i_i_glide_lignum>  (116) 
10

>  <i_i_glide_rotatable_bonds>  (116) 
7

>  <r_i_docking_score>  (116) 
-2.48036

>  <r_i_glide_ligand_efficiency>  (116) 
-0.0729517

>  <r_i_glide_ligand_efficiency_sa>  (116) 
-0.236335

>  <r_i_glide_ligand_efficiency_ln>  (116) 
-0.54798

>  <r_i_glide_gscore>  (116) 
-2.48036

>  <r_i_glide_lipo>  (116) 
-0.190388

>  <r_i_glide_hbond>  (116) 
-0.290803

>  <r_i_glide_metal>  (116) 
-0

>  <r_i_glide_rewards>  (116) 
-0.132921

>  <r_i_glide_evdw>  (116) 
-19.827

>  <r_i_glide_ecoul>  (116) 
-6.28276

>  <r_i_glide_erotb>  (116) 
0.0878339

>  <r_i_glide_esite>  (116) 
-0.0203133

>  <r_i_glide_emodel>  (116) 
-31.7414

>  <r_i_glide_energy>  (116) 
-26.1098

>  <r_i_glide_einternal>  (116) 
0.732752

>  <r_i_glide_intrahb_reward>  (116) 
-0

>  <i_i_glide_confnum>  (116) 
1

>  <i_i_glide_posenum>  (116) 
2

>  <r_i_glide_eff_state_penalty>  (116) 
0

>  <ligand_id>  (116) 
33

>  <original_smiles>  (116) 
C=CC12CC3C(=O)C(C1O)C(O)C14CC(C)(O2)C25C(O)C1OCOCC4(O)C(O)C2C(O)C35C

>  <smiles>  (116) 
[H]OC1([H])C2([H])C(=O)C3([H])C([H])([H])C1(C([H])=C([H])[H])OC1(C([H])([H])[H])C([H])([H])C4(C5([H])OC([H])([H])OC([H])([H])C4(O[H])C([H])(O[H])C4([H])C([H])(O[H])C3(C([H])([H])[H])C41C5([H])O[H])C2([H])O[H]

$$$$
33:1:2
     RDKit          3D

 66 72  0  0  1  0  0  0  0  0999 V2000
    3.4111   -2.9616   -0.4415 C   0  0  0  0  0  0  0  0  0  0  0  0
    3.3623   -2.8505    0.8891 C   0  0  0  0  0  0  0  0  0  0  0  0
    3.6054   -3.9787    1.8982 C   0  0  1  0  0  0  0  0  0  0  0  0
    4.7585   -3.5083    2.8380 C   0  0  0  0  0  0  0  0  0  0  0  0
    5.2800   -4.6442    3.7384 C   0  0  1  0  0  0  0  0  0  0  0  0
    3.8908   -4.8623    4.5404 C   0  0  0  0  0  0  0  0  0  0  0  0
    3.8533   -4.5976    5.7270 O   0  0  0  0  0  0  0  0  0  0  0  0
    2.5221   -5.2709    3.8345 C   0  0  1  0  0  0  0  0  0  0  0  0
    2.2990   -4.3181    2.6420 C   0  0  1  0  0  0  0  0  0  0  0  0
    1.7094   -3.1232    3.1244 O   0  0  0  0  0  0  0  0  0  0  0  0
    1.9281   -6.7967    3.7297 C   0  0  1  0  0  0  0  0  0  0  0  0
    0.6552   -6.6896    3.0984 O   0  0  0  0  0  0  0  0  0  0  0  0
    2.7297   -8.0699    2.9931 C   0  0  2  0  0  0  0  0  0  0  0  0
    2.9264   -7.3748    1.6378 C   0  0  0  0  0  0  0  0  0  0  0  0
    4.1417   -6.5091    1.5752 C   0  0  1  0  0  0  0  0  0  0  0  0
    4.6350   -6.7518    0.0990 C   0  0  0  0  0  0  0  0  0  0  0  0
    3.9428   -5.1374    1.1621 O   0  0  0  0  0  0  0  0  0  0  0  0
    5.1447   -6.8845    2.7488 C   0  0  1  0  0  0  0  0  0  0  0  0
    4.7412   -7.5335    4.2404 C   0  0  1  0  0  0  0  0  0  0  0  0
    5.2480   -7.0168    5.4719 O   0  0  0  0  0  0  0  0  0  0  0  0
    3.2627   -7.8935    4.4099 C   0  0  1  0  0  0  0  0  0  0  0  0
    2.4762   -8.9112    5.1463 O   0  0  0  0  0  0  0  0  0  0  0  0
    1.4262   -9.7015    4.5662 C   0  0  0  0  0  0  0  0  0  0  0  0
    1.8120  -10.7217    3.6565 O   0  0  0  0  0  0  0  0  0  0  0  0
    2.6442  -10.4513    2.4983 C   0  0  0  0  0  0  0  0  0  0  0  0
    3.7413   -9.4450    2.8929 C   0  0  2  0  0  0  0  0  0  0  0  0
    4.2063  -10.3529    3.9219 O   0  0  0  0  0  0  0  0  0  0  0  0
    5.2665   -9.3488    2.2338 C   0  0  1  0  0  0  0  0  0  0  0  0
    5.1984   -9.8398    0.9085 O   0  0  0  0  0  0  0  0  0  0  0  0
    6.0805   -7.9279    2.2326 C   0  0  2  0  0  0  0  0  0  0  0  0
    7.0586   -7.1001    3.1997 C   0  0  1  0  0  0  0  0  0  0  0  0
    8.4195   -7.0523    2.8448 O   0  0  0  0  0  0  0  0  0  0  0  0
    6.1572   -5.7782    2.8954 C   0  0  2  0  0  0  0  0  0  0  0  0
    6.8757   -5.0486    1.7117 C   0  0  0  0  0  0  0  0  0  0  0  0
    3.6305   -3.8972   -0.9408 H   0  0  0  0  0  0  0  0  0  0  0  0
    3.2266   -2.0985   -1.0694 H   0  0  0  0  0  0  0  0  0  0  0  0
    3.1465   -1.8716    1.3039 H   0  0  0  0  0  0  0  0  0  0  0  0
    5.5599   -3.0002    2.3081 H   0  0  0  0  0  0  0  0  0  0  0  0
    4.3768   -2.6988    3.4633 H   0  0  0  0  0  0  0  0  0  0  0  0
    5.9451   -4.1963    4.4805 H   0  0  0  0  0  0  0  0  0  0  0  0
    1.8122   -4.8748    4.5659 H   0  0  0  0  0  0  0  0  0  0  0  0
    1.5998   -4.7402    1.9212 H   0  0  0  0  0  0  0  0  0  0  0  0
    1.5712   -2.5452    2.3757 H   0  0  0  0  0  0  0  0  0  0  0  0
    1.4201   -6.9457    4.7037 H   0  0  0  0  0  0  0  0  0  0  0  0
    0.2459   -7.5520    3.1075 H   0  0  0  0  0  0  0  0  0  0  0  0
    2.9858   -8.1778    0.8983 H   0  0  0  0  0  0  0  0  0  0  0  0
    2.0806   -6.8076    1.2593 H   0  0  0  0  0  0  0  0  0  0  0  0
    4.7988   -7.7871   -0.1767 H   0  0  0  0  0  0  0  0  0  0  0  0
    5.5339   -6.2063   -0.1809 H   0  0  0  0  0  0  0  0  0  0  0  0
    3.8865   -6.4281   -0.6352 H   0  0  0  0  0  0  0  0  0  0  0  0
    5.3572   -8.4162    4.4165 H   0  0  0  0  0  0  0  0  0  0  0  0
    6.1997   -7.0742    5.4580 H   0  0  0  0  0  0  0  0  0  0  0  0
    3.6786   -8.5545    5.1713 H   0  0  0  0  0  0  0  0  0  0  0  0
    0.9986  -10.2535    5.4013 H   0  0  0  0  0  0  0  0  0  0  0  0
    0.6074   -9.1086    4.1674 H   0  0  0  0  0  0  0  0  0  0  0  0
    3.0505  -11.4001    2.1453 H   0  0  0  0  0  0  0  0  0  0  0  0
    2.0166  -10.0686    1.6921 H   0  0  0  0  0  0  0  0  0  0  0  0
    4.3454  -11.2064    3.5194 H   0  0  0  0  0  0  0  0  0  0  0  0
    5.9586  -10.0688    2.6843 H   0  0  0  0  0  0  0  0  0  0  0  0
    4.8085  -10.7287    0.8661 H   0  0  0  0  0  0  0  0  0  0  0  0
    6.5181   -7.7448    1.2615 H   0  0  0  0  0  0  0  0  0  0  0  0
    7.1283   -7.4346    4.2237 H   0  0  0  0  0  0  0  0  0  0  0  0
    8.4911   -7.0900    1.8941 H   0  0  0  0  0  0  0  0  0  0  0  0
    7.4147   -5.7229    1.0560 H   0  0  0  0  0  0  0  0  0  0  0  0
    7.6254   -4.3404    2.0611 H   0  0  0  0  0  0  0  0  0  0  0  0
    6.2301   -4.5063    1.0327 H   0  0  0  0  0  0  0  0  0  0  0  0
  1  2  2  0
  1 35  1  0
  1 36  1  0
  3  2  1  6
  2 37  1  0
  3  9  1  0
  3 17  1  0
  3  4  1  0
  4  5  1  0
  4 38  1  0
  4 39  1  0
  5 33  1  0
  5  6  1  0
  5 40  1  1
  6  7  2  0
  6  8  1  0
  8  9  1  0
  8 11  1  0
  8 41  1  1
  9 10  1  0
  9 42  1  6
 10 43  1  0
 11 12  1  0
 11 13  1  0
 11 44  1  1
 12 45  1  0
 13 21  1  0
 13 26  1  0
 13 14  1  6
 14 15  1  0
 14 46  1  0
 14 47  1  0
 15 16  1  6
 15 17  1  0
 18 15  1  6
 16 48  1  0
 16 49  1  0
 16 50  1  0
 18 30  1  0
 18 33  1  0
 18 19  1  0
 19 20  1  0
 19 21  1  0
 19 51  1  6
 20 52  1  0
 21 22  1  0
 21 53  1  1
 22 23  1  0
 23 24  1  0
 23 54  1  0
 23 55  1  0
 24 25  1  0
 25 26  1  0
 25 56  1  0
 25 57  1  0
 26 27  1  1
 26 28  1  0
 27 58  1  0
 28 29  1  0
 28 30  1  0
 28 59  1  1
 29 60  1  0
 30 31  1  0
 30 61  1  6
 31 32  1  0
 31 33  1  0
 31 62  1  1
 32 63  1  0
 33 34  1  6
 34 64  1  0
 34 65  1  0
 34 66  1  0
M  END
>  <i_m_ct_stereo_status>  (117) 
1

>  <s_m_source_file>  (117) 
/var/tmp/pbs.5076255.sched01/tmp5eg4wc32/41mqp692j8.sdf

>  <i_m_source_file_index>  (117) 
10

>  <i_lp_mmshare_version>  (117) 
48012

>  <i_f3d_flags>  (117) 
0

>  <s_epik_input>  (117) 
QzEyM1tDQEhdNFtDQEhdKFtPSF0pQzU2W0NAXShbQ0gyXTIpKFtDSDNdKU9bQ0BdNyhbQ0hdPVtDSDJdKVtDSDJdW0NAQEhdKEMoPU8pW0NAQEhdKFtDQEhdN1tPSF0pW0NASF0xW09IXSlbQ0BAXTYoW0NIM10pW0NASF0oW09IXSlbQ0BIXTVbQ0BIXShbT0hdKVtDQF0zKFtPSF0pW0NIMl1PW0NIMl1PNA==

>  <s_epik_cmdline>  (117) 
J2VwaWtfcHl0aG9uJywgJy1waHQnLCAnMi4wJywgJy1waCcsICc3LjAnLCAnLXRuJywgJzgnLCAnLW1hJywgJzIwMCcsICctaW1hZScsICc8aW5maWxlLm1hZT4nLCAnLW9tYWUnLCAnPG91dGZpbGUubWFlPic=

>  <r_lp_tautomer_probability>  (117) 
1

>  <r_epik_Ionization_Penalty>  (117) 
1.27171e-06

>  <r_epik_Ionization_Penalty_Charging>  (117) 
0

>  <r_epik_Ionization_Penalty_Neutral>  (117) 
1.27171e-06

>  <r_epik_State_Penalty>  (117) 
-0

>  <r_epik_Charging_Adjusted_Penalty>  (117) 
0

>  <i_epik_Tot_Q>  (117) 
0

>  <i_epik_Tot_abs_Q>  (117) 
0

>  <s_epik_Chemistry_Notes>  (117) 
This compound contains an acetal/aminal-like group ( X-CH(R)-Y where X, Y are N, S, or O) that may be acid/base labile, releasing an aldehyde.

>  <s_lp_Force_Field>  (117) 
OPLS3e

>  <r_lp_Energy>  (117) 
485.169

>  <b_lp_Chiralities_Consistent>  (117) 
1

>  <s_lp_Variant>  (117) 
33:0-2

>  <s_i_glide_gridfile>  (117) 
pfpi4k_grid

>  <i_i_glide_lignum>  (117) 
10

>  <i_i_glide_rotatable_bonds>  (117) 
7

>  <r_i_docking_score>  (117) 
-2.39789

>  <r_i_glide_ligand_efficiency>  (117) 
-0.0705261

>  <r_i_glide_ligand_efficiency_sa>  (117) 
-0.228477

>  <r_i_glide_ligand_efficiency_ln>  (117) 
-0.52976

>  <r_i_glide_gscore>  (117) 
-2.39789

>  <r_i_glide_lipo>  (117) 
-0.345633

>  <r_i_glide_hbond>  (117) 
0

>  <r_i_glide_metal>  (117) 
-0

>  <r_i_glide_rewards>  (117) 
-0.132921

>  <r_i_glide_evdw>  (117) 
-18.3177

>  <r_i_glide_ecoul>  (117) 
-7.09606

>  <r_i_glide_erotb>  (117) 
0.0878339

>  <r_i_glide_esite>  (117) 
-0.0268737

>  <r_i_glide_emodel>  (117) 
-30.2334

>  <r_i_glide_energy>  (117) 
-25.4137

>  <r_i_glide_einternal>  (117) 
1.89101

>  <r_i_glide_intrahb_reward>  (117) 
-0

>  <i_i_glide_confnum>  (117) 
1

>  <i_i_glide_posenum>  (117) 
37

>  <r_i_glide_eff_state_penalty>  (117) 
0

>  <ligand_id>  (117) 
33

>  <original_smiles>  (117) 
C=CC12CC3C(=O)C(C1O)C(O)C14CC(C)(O2)C25C(O)C1OCOCC4(O)C(O)C2C(O)C35C

>  <smiles>  (117) 
[H]OC1([H])C2([H])C(=O)C3([H])C([H])([H])C1(C([H])=C([H])[H])OC1(C([H])([H])[H])C([H])([H])C4(C5([H])OC([H])([H])OC([H])([H])C4(O[H])C([H])(O[H])C4([H])C([H])(O[H])C3(C([H])([H])[H])C41C5([H])O[H])C2([H])O[H]

$$$$
34:0:0
     RDKit          3D

 73 78  0  0  1  0  0  0  0  0999 V2000
    4.4262   -0.8141   -1.3949 C   0  0  0  0  0  0  0  0  0  0  0  0
    5.2673   -1.9757   -0.8370 C   0  0  1  0  0  0  0  0  0  0  0  0
    6.0089   -2.7133   -2.0115 C   0  0  0  0  0  0  0  0  0  0  0  0
    7.4172   -2.6532   -1.9182 O   0  0  0  0  0  0  0  0  0  0  0  0
    6.2070   -1.4555    0.2927 C   0  0  0  0  0  0  0  0  0  0  0  0
    6.4057   -2.6139    1.2814 C   0  0  0  0  0  0  0  0  0  0  0  0
    5.3262   -3.6467    0.9259 C   0  0  2  0  0  0  0  0  0  0  0  0
    4.3658   -2.9002    0.0105 C   0  0  2  0  0  0  0  0  0  0  0  0
    3.3914   -3.8891   -0.6394 C   0  0  0  0  0  0  0  0  0  0  0  0
    2.6453   -4.6993    0.4488 C   0  0  1  0  0  0  0  0  0  0  0  0
    1.7431   -5.4989   -0.3068 O   0  0  0  0  0  0  0  0  0  0  0  0
    3.5860   -5.4660    1.4786 C   0  0  1  0  0  0  0  0  0  0  0  0
    4.3871   -6.5827    0.7448 C   0  0  0  0  0  0  0  0  0  0  0  0
    4.5930   -4.4033    2.0687 C   0  0  2  0  0  0  0  0  0  0  0  0
    3.8942   -3.4241    3.0549 C   0  0  0  0  0  0  0  0  0  0  0  0
    3.1343   -4.1240    4.1766 C   0  0  0  0  0  0  0  0  0  0  0  0
    2.0831   -5.0969    3.6005 C   0  0  2  0  0  0  0  0  0  0  0  0
    1.2009   -5.7374    4.7014 C   0  0  1  0  0  0  0  0  0  0  0  0
   -0.0602   -6.1848    4.1826 O   0  0  0  0  0  0  0  0  0  0  0  0
   -0.4345   -7.4012    4.7524 C   0  0  1  0  0  0  0  0  0  0  0  0
   -0.3688   -8.4465    3.8078 O   0  0  0  0  0  0  0  0  0  0  0  0
    0.5264   -7.5924    5.9570 C   0  0  1  0  0  0  0  0  0  0  0  0
    0.6632   -9.0216    6.5015 C   0  0  0  0  0  0  0  0  0  0  0  0
   -0.2276   -9.5171    7.6121 C   0  0  0  0  0  0  0  0  0  0  0  0
    1.2429   -9.3355    7.8737 C   0  0  0  0  0  0  0  0  0  0  0  0
    1.8259   -6.8865    5.5166 C   0  0  2  0  0  0  0  0  0  0  0  0
    2.6018   -6.3495    6.7628 C   0  0  0  0  0  0  0  0  0  0  0  0
    2.7383   -7.8110    4.6680 C   0  0  0  0  0  0  0  0  0  0  0  0
    3.5895   -7.1088    3.5888 C   0  0  0  0  0  0  0  0  0  0  0  0
    2.7766   -6.1377    2.6779 C   0  0  2  0  0  0  0  0  0  0  0  0
    1.7530   -6.9278    2.1137 O   0  0  0  0  0  0  0  0  0  0  0  0
    5.0517   -0.0943   -1.9190 H   0  0  0  0  0  0  0  0  0  0  0  0
    3.9089   -0.2939   -0.5883 H   0  0  0  0  0  0  0  0  0  0  0  0
    3.6631   -1.1550   -2.0969 H   0  0  0  0  0  0  0  0  0  0  0  0
    5.7566   -3.7667   -2.0943 H   0  0  0  0  0  0  0  0  0  0  0  0
    5.6904   -2.2899   -2.9652 H   0  0  0  0  0  0  0  0  0  0  0  0
    7.7792   -3.0007   -2.7493 H   0  0  0  0  0  0  0  0  0  0  0  0
    7.1658   -1.0524   -0.0284 H   0  0  0  0  0  0  0  0  0  0  0  0
    5.7232   -0.6358    0.8290 H   0  0  0  0  0  0  0  0  0  0  0  0
    7.3847   -3.0714    1.1417 H   0  0  0  0  0  0  0  0  0  0  0  0
    6.3520   -2.2508    2.3037 H   0  0  0  0  0  0  0  0  0  0  0  0
    5.8414   -4.3778    0.3026 H   0  0  0  0  0  0  0  0  0  0  0  0
    3.7543   -2.2239    0.6075 H   0  0  0  0  0  0  0  0  0  0  0  0
    2.6684   -3.3581   -1.2561 H   0  0  0  0  0  0  0  0  0  0  0  0
    3.9159   -4.5769   -1.2926 H   0  0  0  0  0  0  0  0  0  0  0  0
    2.0312   -4.0059    1.0109 H   0  0  0  0  0  0  0  0  0  0  0  0
    2.2335   -5.8163   -1.0497 H   0  0  0  0  0  0  0  0  0  0  0  0
    5.2379   -6.9239    1.3363 H   0  0  0  0  0  0  0  0  0  0  0  0
    4.7918   -6.2593   -0.2089 H   0  0  0  0  0  0  0  0  0  0  0  0
    3.7745   -7.4592    0.5261 H   0  0  0  0  0  0  0  0  0  0  0  0
    5.3541   -4.9310    2.6450 H   0  0  0  0  0  0  0  0  0  0  0  0
    4.6349   -2.7751    3.5130 H   0  0  0  0  0  0  0  0  0  0  0  0
    3.1703   -2.7873    2.5507 H   0  0  0  0  0  0  0  0  0  0  0  0
    3.8693   -4.6374    4.7874 H   0  0  0  0  0  0  0  0  0  0  0  0
    2.6575   -3.3842    4.8211 H   0  0  0  0  0  0  0  0  0  0  0  0
    1.3964   -4.4964    3.0082 H   0  0  0  0  0  0  0  0  0  0  0  0
    0.9297   -4.9579    5.4124 H   0  0  0  0  0  0  0  0  0  0  0  0
   -1.4768   -7.3388    5.0693 H   0  0  0  0  0  0  0  0  0  0  0  0
   -0.6424   -9.2546    4.2204 H   0  0  0  0  0  0  0  0  0  0  0  0
    0.1114   -6.9731    6.7493 H   0  0  0  0  0  0  0  0  0  0  0  0
    0.8702   -9.7658    5.7358 H   0  0  0  0  0  0  0  0  0  0  0  0
   -0.8885   -8.8104    8.1109 H   0  0  0  0  0  0  0  0  0  0  0  0
   -0.5826  -10.5425    7.5585 H   0  0  0  0  0  0  0  0  0  0  0  0
    1.8495  -10.2386    7.9126 H   0  0  0  0  0  0  0  0  0  0  0  0
    1.4767   -8.5640    8.6151 H   0  0  0  0  0  0  0  0  0  0  0  0
    2.9568   -7.1452    7.4158 H   0  0  0  0  0  0  0  0  0  0  0  0
    1.9609   -5.7131    7.3721 H   0  0  0  0  0  0  0  0  0  0  0  0
    3.4848   -5.7580    6.5183 H   0  0  0  0  0  0  0  0  0  0  0  0
    3.4260   -8.3223    5.3414 H   0  0  0  0  0  0  0  0  0  0  0  0
    2.1547   -8.6071    4.2012 H   0  0  0  0  0  0  0  0  0  0  0  0
    4.4302   -6.6138    4.0782 H   0  0  0  0  0  0  0  0  0  0  0  0
    4.0477   -7.9112    3.0070 H   0  0  0  0  0  0  0  0  0  0  0  0
    2.1526   -7.6895    1.7140 H   0  0  0  0  0  0  0  0  0  0  0  0
  2  1  1  6
  1 32  1  0
  1 33  1  0
  1 34  1  0
  2  8  1  0
  2  3  1  0
  2  5  1  0
  3  4  1  0
  3 35  1  0
  3 36  1  0
  4 37  1  0
  5  6  1  0
  5 38  1  0
  5 39  1  0
  6  7  1  0
  6 40  1  0
  6 41  1  0
  7 14  1  0
  7  8  1  0
  7 42  1  6
  8  9  1  0
  8 43  1  1
  9 10  1  0
  9 44  1  0
  9 45  1  0
 10 11  1  0
 10 12  1  0
 10 46  1  1
 11 47  1  0
 12 30  1  0
 12 13  1  6
 12 14  1  0
 13 48  1  0
 13 49  1  0
 13 50  1  0
 14 15  1  0
 14 51  1  1
 15 16  1  0
 15 52  1  0
 15 53  1  0
 16 17  1  0
 16 54  1  0
 16 55  1  0
 17 30  1  0
 17 18  1  0
 17 56  1  6
 18 26  1  0
 18 19  1  0
 18 57  1  1
 19 20  1  0
 20 21  1  0
 20 22  1  0
 20 58  1  1
 21 59  1  0
 22 23  1  0
 22 26  1  0
 22 60  1  1
 23 25  1  0
 23 24  1  0
 23 61  1  0
 24 25  1  0
 24 62  1  0
 24 63  1  0
 25 64  1  0
 25 65  1  0
 26 27  1  1
 26 28  1  0
 27 66  1  0
 27 67  1  0
 27 68  1  0
 28 29  1  0
 28 69  1  0
 28 70  1  0
 29 30  1  0
 29 71  1  0
 29 72  1  0
 30 31  1  6
 31 73  1  0
M  END
>  <i_m_ct_stereo_status>  (118) 
1

>  <s_m_source_file>  (118) 
/var/tmp/pbs.5076255.sched01/tmp5eg4wc32/41mqp692j8.sdf

>  <i_m_source_file_index>  (118) 
11

>  <i_lp_mmshare_version>  (118) 
48012

>  <i_f3d_flags>  (118) 
0

>  <s_epik_input>  (118) 
W09IXVtDSDJdW0NAXShbQ0gzXSkoW0NIMl1bQ0gyXTEpW0NAQEhdKFtDSDJdW0NASF0yW09IXSlbQ0BASF0xW0NASF0oW0NAXTIzW0NIM10pW0NIMl1bQ0gyXVtDQEBIXTRbQ0BASF01W0NAQF0oW0NIM10pKFtDQEBIXShbQ0BASF0oTzUpW09IXSlbQ0hdNltDSDJdW0NIMl02KVtDSDJdW0NIMl1bQ0BdMzRbT0hd

>  <s_epik_cmdline>  (118) 
J2VwaWtfcHl0aG9uJywgJy1waHQnLCAnMi4wJywgJy1waCcsICc3LjAnLCAnLXRuJywgJzgnLCAnLW1hJywgJzIwMCcsICctaW1hZScsICc8aW5maWxlLm1hZT4nLCAnLW9tYWUnLCAnPG91dGZpbGUubWFlPic=

>  <r_lp_tautomer_probability>  (118) 
1

>  <r_epik_Ionization_Penalty>  (118) 
5.90715e-06

>  <r_epik_Ionization_Penalty_Charging>  (118) 
0

>  <r_epik_Ionization_Penalty_Neutral>  (118) 
5.90715e-06

>  <r_epik_State_Penalty>  (118) 
-0

>  <r_epik_Charging_Adjusted_Penalty>  (118) 
0

>  <i_epik_Tot_Q>  (118) 
0

>  <i_epik_Tot_abs_Q>  (118) 
0

>  <s_epik_Chemistry_Notes>  (118) 
This compound contains an acetal/aminal-like group ( X-CH(R)-Y where X, Y are N, S, or O) that may be acid/base labile, releasing an aldehyde.

>  <s_lp_Force_Field>  (118) 
OPLS3e

>  <r_lp_Energy>  (118) 
55.6116

>  <b_lp_Chiralities_Consistent>  (118) 
1

>  <s_lp_Variant>  (118) 
34:0-1

>  <s_i_glide_gridfile>  (118) 
pfpi4k_grid

>  <i_i_glide_lignum>  (118) 
11

>  <i_i_glide_rotatable_bonds>  (118) 
6

>  <r_i_docking_score>  (118) 
-4.0553

>  <r_i_glide_ligand_efficiency>  (118) 
-0.130816

>  <r_i_glide_ligand_efficiency_sa>  (118) 
-0.410943

>  <r_i_glide_ligand_efficiency_ln>  (118) 
-0.914593

>  <r_i_glide_gscore>  (118) 
-4.0553

>  <r_i_glide_lipo>  (118) 
-0.355532

>  <r_i_glide_hbond>  (118) 
-0.439337

>  <r_i_glide_metal>  (118) 
-0

>  <r_i_glide_rewards>  (118) 
-0.44585

>  <r_i_glide_evdw>  (118) 
-21.5444

>  <r_i_glide_ecoul>  (118) 
-12.7649

>  <r_i_glide_erotb>  (118) 
0.210893

>  <r_i_glide_esite>  (118) 
-0.0335059

>  <r_i_glide_emodel>  (118) 
-38.4844

>  <r_i_glide_energy>  (118) 
-34.3094

>  <r_i_glide_einternal>  (118) 
9.82282

>  <r_i_glide_intrahb_reward>  (118) 
-0

>  <i_i_glide_confnum>  (118) 
6

>  <i_i_glide_posenum>  (118) 
33

>  <r_i_glide_eff_state_penalty>  (118) 
0

>  <ligand_id>  (118) 
34

>  <original_smiles>  (118) 
CC1(CO)CCC2C1CC(O)C1(C)C2CCC2C3OC(O)C(C4CC4)C3(C)CCC21O

>  <smiles>  (118) 
[H]OC([H])([H])C1(C([H])([H])[H])C([H])([H])C([H])([H])C2([H])C1([H])C([H])([H])C([H])(O[H])C1(C([H])([H])[H])C2([H])C([H])([H])C([H])([H])C2([H])C3([H])OC([H])(O[H])C([H])(C4([H])C([H])([H])C4([H])[H])C3(C([H])([H])[H])C([H])([H])C([H])([H])C21O[H]

$$$$
34:0:1
     RDKit          3D

 73 78  0  0  1  0  0  0  0  0999 V2000
    4.5843   -0.8171   -1.4167 C   0  0  0  0  0  0  0  0  0  0  0  0
    5.3255   -2.0760   -0.9203 C   0  0  1  0  0  0  0  0  0  0  0  0
    5.9724   -2.8388   -2.1106 C   0  0  0  0  0  0  0  0  0  0  0  0
    5.0538   -3.0813   -3.1593 O   0  0  0  0  0  0  0  0  0  0  0  0
    6.4103   -1.6865    0.1125 C   0  0  0  0  0  0  0  0  0  0  0  0
    6.5569   -2.8421    1.1172 C   0  0  0  0  0  0  0  0  0  0  0  0
    5.3759   -3.7758    0.8302 C   0  0  2  0  0  0  0  0  0  0  0  0
    4.4212   -2.9413   -0.0220 C   0  0  2  0  0  0  0  0  0  0  0  0
    3.3750   -3.8536   -0.6512 C   0  0  0  0  0  0  0  0  0  0  0  0
    2.6166   -4.6480    0.4347 C   0  0  1  0  0  0  0  0  0  0  0  0
    1.7085   -5.4506   -0.3035 O   0  0  0  0  0  0  0  0  0  0  0  0
    3.5316   -5.4634    1.4424 C   0  0  1  0  0  0  0  0  0  0  0  0
    4.2182   -6.6271    0.6695 C   0  0  0  0  0  0  0  0  0  0  0  0
    4.6374   -4.4822    1.9993 C   0  0  2  0  0  0  0  0  0  0  0  0
    4.0636   -3.4632    3.0246 C   0  0  0  0  0  0  0  0  0  0  0  0
    3.3108   -4.1297    4.1732 C   0  0  0  0  0  0  0  0  0  0  0  0
    2.1567   -5.0065    3.6348 C   0  0  2  0  0  0  0  0  0  0  0  0
    1.2798   -5.5885    4.7745 C   0  0  1  0  0  0  0  0  0  0  0  0
   -0.0280   -5.9389    4.3050 O   0  0  0  0  0  0  0  0  0  0  0  0
   -0.4694   -7.1316    4.8704 C   0  0  1  0  0  0  0  0  0  0  0  0
   -0.5044   -8.1675    3.9200 O   0  0  0  0  0  0  0  0  0  0  0  0
    0.5145   -7.4142    6.0300 C   0  0  1  0  0  0  0  0  0  0  0  0
    0.5522   -8.8540    6.5441 C   0  0  0  0  0  0  0  0  0  0  0  0
   -0.3477   -9.2968    7.6697 C   0  0  0  0  0  0  0  0  0  0  0  0
    1.1325   -9.2042    7.9000 C   0  0  0  0  0  0  0  0  0  0  0  0
    1.8428   -6.8000    5.5469 C   0  0  2  0  0  0  0  0  0  0  0  0
    2.6908   -6.3585    6.7715 C   0  0  0  0  0  0  0  0  0  0  0  0
    2.6634   -7.7738    4.6554 C   0  0  0  0  0  0  0  0  0  0  0  0
    3.4972   -7.1295    3.5283 C   0  0  0  0  0  0  0  0  0  0  0  0
    2.7191   -6.0839    2.6685 C   0  0  2  0  0  0  0  0  0  0  0  0
    1.6159   -6.7950    2.1359 O   0  0  0  0  0  0  0  0  0  0  0  0
    5.2655   -0.1592   -1.9503 H   0  0  0  0  0  0  0  0  0  0  0  0
    4.1610   -0.2565   -0.5847 H   0  0  0  0  0  0  0  0  0  0  0  0
    3.7606   -1.0570   -2.0912 H   0  0  0  0  0  0  0  0  0  0  0  0
    6.7992   -2.2577   -2.5205 H   0  0  0  0  0  0  0  0  0  0  0  0
    6.4055   -3.7892   -1.8035 H   0  0  0  0  0  0  0  0  0  0  0  0
    4.3491   -3.6178   -2.8303 H   0  0  0  0  0  0  0  0  0  0  0  0
    7.3704   -1.4434   -0.3372 H   0  0  0  0  0  0  0  0  0  0  0  0
    6.0837   -0.8084    0.6740 H   0  0  0  0  0  0  0  0  0  0  0  0
    7.4959   -3.3734    0.9517 H   0  0  0  0  0  0  0  0  0  0  0  0
    6.5747   -2.4587    2.1356 H   0  0  0  0  0  0  0  0  0  0  0  0
    5.7957   -4.5575    0.1991 H   0  0  0  0  0  0  0  0  0  0  0  0
    3.8831   -2.2358    0.6105 H   0  0  0  0  0  0  0  0  0  0  0  0
    2.6734   -3.2628   -1.2433 H   0  0  0  0  0  0  0  0  0  0  0  0
    3.8635   -4.5411   -1.3351 H   0  0  0  0  0  0  0  0  0  0  0  0
    2.0335   -3.9247    1.0023 H   0  0  0  0  0  0  0  0  0  0  0  0
    2.1887   -5.8381   -1.0288 H   0  0  0  0  0  0  0  0  0  0  0  0
    5.0727   -7.0257    1.2176 H   0  0  0  0  0  0  0  0  0  0  0  0
    4.5884   -6.3357   -0.3084 H   0  0  0  0  0  0  0  0  0  0  0  0
    3.5336   -7.4535    0.4843 H   0  0  0  0  0  0  0  0  0  0  0  0
    5.3835   -5.0742    2.5317 H   0  0  0  0  0  0  0  0  0  0  0  0
    4.8689   -2.8665    3.4538 H   0  0  0  0  0  0  0  0  0  0  0  0
    3.3694   -2.7629    2.5607 H   0  0  0  0  0  0  0  0  0  0  0  0
    4.0257   -4.7037    4.7589 H   0  0  0  0  0  0  0  0  0  0  0  0
    2.9203   -3.3650    4.8456 H   0  0  0  0  0  0  0  0  0  0  0  0
    1.4996   -4.3403    3.0742 H   0  0  0  0  0  0  0  0  0  0  0  0
    1.0952   -4.7902    5.4923 H   0  0  0  0  0  0  0  0  0  0  0  0
   -1.4878   -6.9923    5.2337 H   0  0  0  0  0  0  0  0  0  0  0  0
   -0.7298   -8.9811    4.3577 H   0  0  0  0  0  0  0  0  0  0  0  0
    0.1632   -6.7841    6.8487 H   0  0  0  0  0  0  0  0  0  0  0  0
    0.7138   -9.6012    5.7617 H   0  0  0  0  0  0  0  0  0  0  0  0
   -0.9599   -8.5619    8.1906 H   0  0  0  0  0  0  0  0  0  0  0  0
   -0.7743  -10.2877    7.5702 H   0  0  0  0  0  0  0  0  0  0  0  0
    1.6828  -10.1386    7.9605 H   0  0  0  0  0  0  0  0  0  0  0  0
    1.4684   -8.4154    8.5781 H   0  0  0  0  0  0  0  0  0  0  0  0
    2.9587   -7.1971    7.4081 H   0  0  0  0  0  0  0  0  0  0  0  0
    2.1411   -5.6637    7.4010 H   0  0  0  0  0  0  0  0  0  0  0  0
    3.6183   -5.8650    6.5044 H   0  0  0  0  0  0  0  0  0  0  0  0
    3.3247   -8.3703    5.2828 H   0  0  0  0  0  0  0  0  0  0  0  0
    2.0046   -8.5003    4.1853 H   0  0  0  0  0  0  0  0  0  0  0  0
    4.3932   -6.6986    3.9683 H   0  0  0  0  0  0  0  0  0  0  0  0
    3.8756   -7.9450    2.9164 H   0  0  0  0  0  0  0  0  0  0  0  0
    1.9336   -7.5823    1.7334 H   0  0  0  0  0  0  0  0  0  0  0  0
  2  1  1  6
  1 32  1  0
  1 33  1  0
  1 34  1  0
  2  8  1  0
  2  3  1  0
  2  5  1  0
  3  4  1  0
  3 35  1  0
  3 36  1  0
  4 37  1  0
  5  6  1  0
  5 38  1  0
  5 39  1  0
  6  7  1  0
  6 40  1  0
  6 41  1  0
  7 14  1  0
  7  8  1  0
  7 42  1  6
  8  9  1  0
  8 43  1  1
  9 10  1  0
  9 44  1  0
  9 45  1  0
 10 11  1  0
 10 12  1  0
 10 46  1  1
 11 47  1  0
 12 30  1  0
 12 13  1  6
 12 14  1  0
 13 48  1  0
 13 49  1  0
 13 50  1  0
 14 15  1  0
 14 51  1  1
 15 16  1  0
 15 52  1  0
 15 53  1  0
 16 17  1  0
 16 54  1  0
 16 55  1  0
 17 30  1  0
 17 18  1  0
 17 56  1  6
 18 26  1  0
 18 19  1  0
 18 57  1  1
 19 20  1  0
 20 21  1  0
 20 22  1  0
 20 58  1  1
 21 59  1  0
 22 23  1  0
 22 26  1  0
 22 60  1  1
 23 25  1  0
 23 24  1  0
 23 61  1  0
 24 25  1  0
 24 62  1  0
 24 63  1  0
 25 64  1  0
 25 65  1  0
 26 27  1  1
 26 28  1  0
 27 66  1  0
 27 67  1  0
 27 68  1  0
 28 29  1  0
 28 69  1  0
 28 70  1  0
 29 30  1  0
 29 71  1  0
 29 72  1  0
 30 31  1  6
 31 73  1  0
M  END
>  <i_m_ct_stereo_status>  (119) 
1

>  <s_m_source_file>  (119) 
/var/tmp/pbs.5076255.sched01/tmp5eg4wc32/41mqp692j8.sdf

>  <i_m_source_file_index>  (119) 
11

>  <i_lp_mmshare_version>  (119) 
48012

>  <i_f3d_flags>  (119) 
0

>  <s_epik_input>  (119) 
W09IXVtDSDJdW0NAXShbQ0gzXSkoW0NIMl1bQ0gyXTEpW0NAQEhdKFtDSDJdW0NASF0yW09IXSlbQ0BASF0xW0NASF0oW0NAXTIzW0NIM10pW0NIMl1bQ0gyXVtDQEBIXTRbQ0BASF01W0NAQF0oW0NIM10pKFtDQEBIXShbQ0BASF0oTzUpW09IXSlbQ0hdNltDSDJdW0NIMl02KVtDSDJdW0NIMl1bQ0BdMzRbT0hd

>  <s_epik_cmdline>  (119) 
J2VwaWtfcHl0aG9uJywgJy1waHQnLCAnMi4wJywgJy1waCcsICc3LjAnLCAnLXRuJywgJzgnLCAnLW1hJywgJzIwMCcsICctaW1hZScsICc8aW5maWxlLm1hZT4nLCAnLW9tYWUnLCAnPG91dGZpbGUubWFlPic=

>  <r_lp_tautomer_probability>  (119) 
1

>  <r_epik_Ionization_Penalty>  (119) 
5.90715e-06

>  <r_epik_Ionization_Penalty_Charging>  (119) 
0

>  <r_epik_Ionization_Penalty_Neutral>  (119) 
5.90715e-06

>  <r_epik_State_Penalty>  (119) 
-0

>  <r_epik_Charging_Adjusted_Penalty>  (119) 
0

>  <i_epik_Tot_Q>  (119) 
0

>  <i_epik_Tot_abs_Q>  (119) 
0

>  <s_epik_Chemistry_Notes>  (119) 
This compound contains an acetal/aminal-like group ( X-CH(R)-Y where X, Y are N, S, or O) that may be acid/base labile, releasing an aldehyde.

>  <s_lp_Force_Field>  (119) 
OPLS3e

>  <r_lp_Energy>  (119) 
55.6116

>  <b_lp_Chiralities_Consistent>  (119) 
1

>  <s_lp_Variant>  (119) 
34:0-1

>  <s_i_glide_gridfile>  (119) 
pfpi4k_grid

>  <i_i_glide_lignum>  (119) 
11

>  <i_i_glide_rotatable_bonds>  (119) 
6

>  <r_i_docking_score>  (119) 
-3.09325

>  <r_i_glide_ligand_efficiency>  (119) 
-0.0997822

>  <r_i_glide_ligand_efficiency_sa>  (119) 
-0.313454

>  <r_i_glide_ligand_efficiency_ln>  (119) 
-0.697623

>  <r_i_glide_gscore>  (119) 
-3.09325

>  <r_i_glide_lipo>  (119) 
-0.370521

>  <r_i_glide_hbond>  (119) 
0

>  <r_i_glide_metal>  (119) 
-0

>  <r_i_glide_rewards>  (119) 
-0.44585

>  <r_i_glide_evdw>  (119) 
-21.8152

>  <r_i_glide_ecoul>  (119) 
-9.11163

>  <r_i_glide_erotb>  (119) 
0.210893

>  <r_i_glide_esite>  (119) 
-0.0302674

>  <r_i_glide_emodel>  (119) 
-36.326

>  <r_i_glide_energy>  (119) 
-30.9268

>  <r_i_glide_einternal>  (119) 
3.52259

>  <r_i_glide_intrahb_reward>  (119) 
-0

>  <i_i_glide_confnum>  (119) 
3

>  <i_i_glide_posenum>  (119) 
1

>  <r_i_glide_eff_state_penalty>  (119) 
0

>  <ligand_id>  (119) 
34

>  <original_smiles>  (119) 
CC1(CO)CCC2C1CC(O)C1(C)C2CCC2C3OC(O)C(C4CC4)C3(C)CCC21O

>  <smiles>  (119) 
[H]OC([H])([H])C1(C([H])([H])[H])C([H])([H])C([H])([H])C2([H])C1([H])C([H])([H])C([H])(O[H])C1(C([H])([H])[H])C2([H])C([H])([H])C([H])([H])C2([H])C3([H])OC([H])(O[H])C([H])(C4([H])C([H])([H])C4([H])[H])C3(C([H])([H])[H])C([H])([H])C([H])([H])C21O[H]

$$$$
34:0:2
     RDKit          3D

 73 78  0  0  1  0  0  0  0  0999 V2000
    4.6965   -0.8547   -1.5960 C   0  0  0  0  0  0  0  0  0  0  0  0
    5.4131   -2.1173   -1.0682 C   0  0  1  0  0  0  0  0  0  0  0  0
    6.0338   -2.9203   -2.2509 C   0  0  0  0  0  0  0  0  0  0  0  0
    5.0987   -3.1802   -3.2855 O   0  0  0  0  0  0  0  0  0  0  0  0
    6.5148   -1.7354   -0.0528 C   0  0  0  0  0  0  0  0  0  0  0  0
    6.6290   -2.8639    0.9816 C   0  0  0  0  0  0  0  0  0  0  0  0
    5.4329   -3.7794    0.7223 C   0  0  2  0  0  0  0  0  0  0  0  0
    4.4896   -2.9495   -0.1503 C   0  0  2  0  0  0  0  0  0  0  0  0
    3.4175   -3.8617   -0.7409 C   0  0  0  0  0  0  0  0  0  0  0  0
    2.6576   -4.6100    0.3804 C   0  0  1  0  0  0  0  0  0  0  0  0
    1.7242   -5.4389   -0.2851 O   0  0  0  0  0  0  0  0  0  0  0  0
    3.5648   -5.4125    1.4014 C   0  0  1  0  0  0  0  0  0  0  0  0
    4.2208   -6.6066    0.6494 C   0  0  0  0  0  0  0  0  0  0  0  0
    4.6899   -4.4345    1.9224 C   0  0  2  0  0  0  0  0  0  0  0  0
    4.1433   -3.3759    2.9171 C   0  0  0  0  0  0  0  0  0  0  0  0
    3.3829   -3.9855    4.0823 C   0  0  0  0  0  0  0  0  0  0  0  0
    2.2106   -4.8584    3.5814 C   0  0  2  0  0  0  0  0  0  0  0  0
    1.3319   -5.3800    4.7383 C   0  0  1  0  0  0  0  0  0  0  0  0
    0.0179   -5.7095    4.2978 O   0  0  0  0  0  0  0  0  0  0  0  0
   -0.4418   -6.8818    4.8920 C   0  0  1  0  0  0  0  0  0  0  0  0
   -0.5034   -7.9261    3.9658 O   0  0  0  0  0  0  0  0  0  0  0  0
    0.5447   -7.1616    6.0559 C   0  0  1  0  0  0  0  0  0  0  0  0
    0.5584   -8.5929    6.6075 C   0  0  0  0  0  0  0  0  0  0  0  0
   -0.1876   -8.9193    7.8646 C   0  0  0  0  0  0  0  0  0  0  0  0
    1.3149   -8.9896    7.8603 C   0  0  0  0  0  0  0  0  0  0  0  0
    1.8758   -6.5838    5.5317 C   0  0  2  0  0  0  0  0  0  0  0  0
    2.7582   -6.1136    6.7386 C   0  0  0  0  0  0  0  0  0  0  0  0
    2.6639   -7.6070    4.6720 C   0  0  0  0  0  0  0  0  0  0  0  0
    3.5166   -7.0133    3.5351 C   0  0  0  0  0  0  0  0  0  0  0  0
    2.7491   -5.9867    2.6532 C   0  0  2  0  0  0  0  0  0  0  0  0
    1.6294   -6.7063    2.1714 O   0  0  0  0  0  0  0  0  0  0  0  0
    5.3948   -0.2250   -2.1382 H   0  0  0  0  0  0  0  0  0  0  0  0
    4.2692   -0.2678   -0.7829 H   0  0  0  0  0  0  0  0  0  0  0  0
    3.8755   -1.0943   -2.2706 H   0  0  0  0  0  0  0  0  0  0  0  0
    6.8607   -2.3585   -2.6864 H   0  0  0  0  0  0  0  0  0  0  0  0
    6.4653   -3.8550   -1.9155 H   0  0  0  0  0  0  0  0  0  0  0  0
    4.3930   -3.6980   -2.9251 H   0  0  0  0  0  0  0  0  0  0  0  0
    7.4785   -1.5374   -0.5082 H   0  0  0  0  0  0  0  0  0  0  0  0
    6.2195   -0.8329    0.4776 H   0  0  0  0  0  0  0  0  0  0  0  0
    7.5596   -3.4136    0.8413 H   0  0  0  0  0  0  0  0  0  0  0  0
    6.6359   -2.4569    1.9876 H   0  0  0  0  0  0  0  0  0  0  0  0
    5.8417   -4.5814    0.1080 H   0  0  0  0  0  0  0  0  0  0  0  0
    3.9816   -2.2084    0.4671 H   0  0  0  0  0  0  0  0  0  0  0  0
    2.7282   -3.2733   -1.3400 H   0  0  0  0  0  0  0  0  0  0  0  0
    3.9015   -4.5689   -1.4014 H   0  0  0  0  0  0  0  0  0  0  0  0
    2.0991   -3.8541    0.9290 H   0  0  0  0  0  0  0  0  0  0  0  0
    2.1310   -5.7083   -1.1007 H   0  0  0  0  0  0  0  0  0  0  0  0
    5.0637   -7.0165    1.2010 H   0  0  0  0  0  0  0  0  0  0  0  0
    4.5977   -6.3405   -0.3340 H   0  0  0  0  0  0  0  0  0  0  0  0
    3.5109   -7.4154    0.4901 H   0  0  0  0  0  0  0  0  0  0  0  0
    5.4264   -5.0257    2.4627 H   0  0  0  0  0  0  0  0  0  0  0  0
    4.9654   -2.7913    3.3239 H   0  0  0  0  0  0  0  0  0  0  0  0
    3.4638   -2.6785    2.4375 H   0  0  0  0  0  0  0  0  0  0  0  0
    4.0941   -4.5576    4.6617 H   0  0  0  0  0  0  0  0  0  0  0  0
    3.0129   -3.1989    4.7378 H   0  0  0  0  0  0  0  0  0  0  0  0
    1.5618   -4.1985    3.0043 H   0  0  0  0  0  0  0  0  0  0  0  0
    1.1655   -4.5683    5.4348 H   0  0  0  0  0  0  0  0  0  0  0  0
   -1.4703   -6.7334    5.2340 H   0  0  0  0  0  0  0  0  0  0  0  0
    0.3872   -8.2414    3.8261 H   0  0  0  0  0  0  0  0  0  0  0  0
    0.2042   -6.5032    6.8608 H   0  0  0  0  0  0  0  0  0  0  0  0
    0.4977   -9.3577    5.8409 H   0  0  0  0  0  0  0  0  0  0  0  0
   -0.6111   -8.1176    8.4642 H   0  0  0  0  0  0  0  0  0  0  0  0
   -0.7156   -9.8600    7.9020 H   0  0  0  0  0  0  0  0  0  0  0  0
    1.7613   -9.9874    7.8176 H   0  0  0  0  0  0  0  0  0  0  0  0
    1.8218   -8.2376    8.4868 H   0  0  0  0  0  0  0  0  0  0  0  0
    3.0303   -6.9525    7.4119 H   0  0  0  0  0  0  0  0  0  0  0  0
    2.2147   -5.3881    7.3595 H   0  0  0  0  0  0  0  0  0  0  0  0
    3.6670   -5.5811    6.4215 H   0  0  0  0  0  0  0  0  0  0  0  0
    3.3225   -8.1829    5.3213 H   0  0  0  0  0  0  0  0  0  0  0  0
    1.9923   -8.3523    4.2433 H   0  0  0  0  0  0  0  0  0  0  0  0
    4.4241   -6.5814    3.9548 H   0  0  0  0  0  0  0  0  0  0  0  0
    3.8560   -7.8550    2.9384 H   0  0  0  0  0  0  0  0  0  0  0  0
    1.9414   -7.4620    1.6957 H   0  0  0  0  0  0  0  0  0  0  0  0
  2  1  1  6
  1 32  1  0
  1 33  1  0
  1 34  1  0
  2  8  1  0
  2  3  1  0
  2  5  1  0
  3  4  1  0
  3 35  1  0
  3 36  1  0
  4 37  1  0
  5  6  1  0
  5 38  1  0
  5 39  1  0
  6  7  1  0
  6 40  1  0
  6 41  1  0
  7 14  1  0
  7  8  1  0
  7 42  1  6
  8  9  1  0
  8 43  1  1
  9 10  1  0
  9 44  1  0
  9 45  1  0
 10 11  1  0
 10 12  1  0
 10 46  1  1
 11 47  1  0
 12 30  1  0
 12 13  1  6
 12 14  1  0
 13 48  1  0
 13 49  1  0
 13 50  1  0
 14 15  1  0
 14 51  1  1
 15 16  1  0
 15 52  1  0
 15 53  1  0
 16 17  1  0
 16 54  1  0
 16 55  1  0
 17 30  1  0
 17 18  1  0
 17 56  1  6
 18 26  1  0
 18 19  1  0
 18 57  1  1
 19 20  1  0
 20 21  1  0
 20 22  1  0
 20 58  1  1
 21 59  1  0
 22 23  1  0
 22 26  1  0
 22 60  1  1
 23 25  1  0
 23 24  1  0
 23 61  1  0
 24 25  1  0
 24 62  1  0
 24 63  1  0
 25 64  1  0
 25 65  1  0
 26 27  1  1
 26 28  1  0
 27 66  1  0
 27 67  1  0
 27 68  1  0
 28 29  1  0
 28 69  1  0
 28 70  1  0
 29 30  1  0
 29 71  1  0
 29 72  1  0
 30 31  1  6
 31 73  1  0
M  END
>  <i_m_ct_stereo_status>  (120) 
1

>  <s_m_source_file>  (120) 
/var/tmp/pbs.5076255.sched01/tmp5eg4wc32/41mqp692j8.sdf

>  <i_m_source_file_index>  (120) 
11

>  <i_lp_mmshare_version>  (120) 
48012

>  <i_f3d_flags>  (120) 
0

>  <s_epik_input>  (120) 
W09IXVtDSDJdW0NAXShbQ0gzXSkoW0NIMl1bQ0gyXTEpW0NAQEhdKFtDSDJdW0NASF0yW09IXSlbQ0BASF0xW0NASF0oW0NAXTIzW0NIM10pW0NIMl1bQ0gyXVtDQEBIXTRbQ0BASF01W0NAQF0oW0NIM10pKFtDQEBIXShbQ0BASF0oTzUpW09IXSlbQ0hdNltDSDJdW0NIMl02KVtDSDJdW0NIMl1bQ0BdMzRbT0hd

>  <s_epik_cmdline>  (120) 
J2VwaWtfcHl0aG9uJywgJy1waHQnLCAnMi4wJywgJy1waCcsICc3LjAnLCAnLXRuJywgJzgnLCAnLW1hJywgJzIwMCcsICctaW1hZScsICc8aW5maWxlLm1hZT4nLCAnLW9tYWUnLCAnPG91dGZpbGUubWFlPic=

>  <r_lp_tautomer_probability>  (120) 
1

>  <r_epik_Ionization_Penalty>  (120) 
5.90715e-06

>  <r_epik_Ionization_Penalty_Charging>  (120) 
0

>  <r_epik_Ionization_Penalty_Neutral>  (120) 
5.90715e-06

>  <r_epik_State_Penalty>  (120) 
-0

>  <r_epik_Charging_Adjusted_Penalty>  (120) 
0

>  <i_epik_Tot_Q>  (120) 
0

>  <i_epik_Tot_abs_Q>  (120) 
0

>  <s_epik_Chemistry_Notes>  (120) 
This compound contains an acetal/aminal-like group ( X-CH(R)-Y where X, Y are N, S, or O) that may be acid/base labile, releasing an aldehyde.

>  <s_lp_Force_Field>  (120) 
OPLS3e

>  <r_lp_Energy>  (120) 
55.6116

>  <b_lp_Chiralities_Consistent>  (120) 
1

>  <s_lp_Variant>  (120) 
34:0-1

>  <s_i_glide_gridfile>  (120) 
pfpi4k_grid

>  <i_i_glide_lignum>  (120) 
11

>  <i_i_glide_rotatable_bonds>  (120) 
6

>  <r_i_docking_score>  (120) 
-3.03915

>  <r_i_glide_ligand_efficiency>  (120) 
-0.0980371

>  <r_i_glide_ligand_efficiency_sa>  (120) 
-0.307972

>  <r_i_glide_ligand_efficiency_ln>  (120) 
-0.685421

>  <r_i_glide_gscore>  (120) 
-3.03915

>  <r_i_glide_lipo>  (120) 
-0.426474

>  <r_i_glide_hbond>  (120) 
0

>  <r_i_glide_metal>  (120) 
-0

>  <r_i_glide_rewards>  (120) 
-0.44585

>  <r_i_glide_evdw>  (120) 
-21.9545

>  <r_i_glide_ecoul>  (120) 
-8.34106

>  <r_i_glide_erotb>  (120) 
0.210893

>  <r_i_glide_esite>  (120) 
-0.0288319

>  <r_i_glide_emodel>  (120) 
-35.1298

>  <r_i_glide_energy>  (120) 
-30.2956

>  <r_i_glide_einternal>  (120) 
3.04255

>  <r_i_glide_intrahb_reward>  (120) 
-0

>  <i_i_glide_confnum>  (120) 
6

>  <i_i_glide_posenum>  (120) 
39

>  <r_i_glide_eff_state_penalty>  (120) 
0

>  <ligand_id>  (120) 
34

>  <original_smiles>  (120) 
CC1(CO)CCC2C1CC(O)C1(C)C2CCC2C3OC(O)C(C4CC4)C3(C)CCC21O

>  <smiles>  (120) 
[H]OC([H])([H])C1(C([H])([H])[H])C([H])([H])C([H])([H])C2([H])C1([H])C([H])([H])C([H])(O[H])C1(C([H])([H])[H])C2([H])C([H])([H])C([H])([H])C2([H])C3([H])OC([H])(O[H])C([H])(C4([H])C([H])([H])C4([H])[H])C3(C([H])([H])[H])C([H])([H])C([H])([H])C21O[H]

$$$$
35:0:0
     RDKit          3D

 40 44  0  0  1  0  0  0  0  0999 V2000
    8.2240   -2.7374   -0.2476 C   0  0  0  0  0  0  0  0  0  0  0  0
    6.9530   -3.0070   -0.6183 C   0  0  0  0  0  0  0  0  0  0  0  0
    5.7146   -2.3681    0.0195 C   0  0  2  0  0  0  0  0  0  0  0  0
    4.6031   -3.3785    0.3636 C   0  0  1  0  0  0  0  0  0  0  0  0
    4.4114   -3.7591    1.8410 C   0  0  0  0  0  0  0  0  0  0  0  0
    3.4233   -4.7669    2.0207 O   0  0  0  0  0  0  0  0  0  0  0  0
    3.8747   -6.0843    1.7482 C   0  0  0  0  0  0  0  0  0  0  0  0
    2.7120   -7.0514    1.9543 C   0  0  0  0  0  0  0  0  0  0  0  0
    3.1521   -8.5079    1.7769 C   0  0  0  0  0  0  0  0  0  0  0  0
    3.5319   -2.5156   -0.3793 C   0  0  1  0  0  0  0  0  0  0  0  0
    2.6310   -1.8891    0.4810 O   0  0  0  0  0  0  0  0  0  0  0  0
    4.7724   -1.6125   -0.9480 C   0  0  2  0  0  0  0  0  0  0  0  0
    4.8784   -1.7981   -2.5468 C   0  0  1  0  0  0  0  0  0  0  0  0
    3.7406   -1.6267   -3.6781 C   0  0  2  0  0  0  0  0  0  0  0  0
    3.0060   -1.6998   -2.7645 C   0  0  1  0  0  0  0  0  0  0  0  0
    2.3519   -2.6348   -3.0609 C   0  0  2  0  0  0  0  0  0  0  0  0
    2.8406   -3.2295   -1.6486 C   0  0  1  0  0  0  0  0  0  0  0  0
    4.0159   -2.8993   -2.3665 C   0  0  2  0  0  0  0  0  0  0  0  0
    8.4133   -2.0271    0.5476 H   0  0  0  0  0  0  0  0  0  0  0  0
    9.0720   -3.1900   -0.7289 H   0  0  0  0  0  0  0  0  0  0  0  0
    6.8092   -3.7327   -1.4182 H   0  0  0  0  0  0  0  0  0  0  0  0
    5.9703   -1.7754    0.8987 H   0  0  0  0  0  0  0  0  0  0  0  0
    4.8126   -4.2409   -0.2626 H   0  0  0  0  0  0  0  0  0  0  0  0
    5.3617   -4.0582    2.3079 H   0  0  0  0  0  0  0  0  0  0  0  0
    4.1004   -2.8909    2.4230 H   0  0  0  0  0  0  0  0  0  0  0  0
    4.2148   -6.1936    0.7221 H   0  0  0  0  0  0  0  0  0  0  0  0
    4.7088   -6.3300    2.4089 H   0  0  0  0  0  0  0  0  0  0  0  0
    2.2862   -6.9150    2.9507 H   0  0  0  0  0  0  0  0  0  0  0  0
    1.9234   -6.8167    1.2379 H   0  0  0  0  0  0  0  0  0  0  0  0
    2.3069   -9.1858    1.8951 H   0  0  0  0  0  0  0  0  0  0  0  0
    3.9056   -8.7763    2.5185 H   0  0  0  0  0  0  0  0  0  0  0  0
    3.5859   -8.6835    0.7912 H   0  0  0  0  0  0  0  0  0  0  0  0
    1.9485   -1.4525   -0.0638 H   0  0  0  0  0  0  0  0  0  0  0  0
    4.6877   -0.5763   -0.5996 H   0  0  0  0  0  0  0  0  0  0  0  0
    5.8306   -2.1717   -2.9073 H   0  0  0  0  0  0  0  0  0  0  0  0
    3.6664   -0.7133   -4.2812 H   0  0  0  0  0  0  0  0  0  0  0  0
    2.7162   -0.8705   -2.1167 H   0  0  0  0  0  0  0  0  0  0  0  0
    1.2989   -2.5282   -3.3114 H   0  0  0  0  0  0  0  0  0  0  0  0
    2.6773   -4.2788   -1.5069 H   0  0  0  0  0  0  0  0  0  0  0  0
    4.2955   -3.6967   -3.0392 H   0  0  0  0  0  0  0  0  0  0  0  0
  1  2  2  0
  1 19  1  0
  1 20  1  0
  2  3  1  0
  2 21  1  0
  3 12  1  0
  3  4  1  0
  3 22  1  1
  4  5  1  0
  4 10  1  0
  4 23  1  6
  5  6  1  0
  5 24  1  0
  5 25  1  0
  6  7  1  0
  7  8  1  0
  7 26  1  0
  7 27  1  0
  8  9  1  0
  8 28  1  0
  8 29  1  0
  9 30  1  0
  9 31  1  0
  9 32  1  0
 10 17  1  0
 10 11  1  1
 10 12  1  0
 11 33  1  0
 12 13  1  0
 12 34  1  6
 13 18  1  0
 13 14  1  0
 13 35  1  6
 14 16  1  0
 14 15  1  0
 14 36  1  6
 15 18  1  0
 15 16  1  0
 15 37  1  1
 16 17  1  0
 16 38  1  6
 17 18  1  0
 17 39  1  1
 18 40  1  6
M  END
>  <i_m_ct_stereo_status>  (121) 
1

>  <s_m_source_file>  (121) 
/var/tmp/pbs.5076255.sched01/tmp5eg4wc32/41mqp692j8.sdf

>  <i_m_source_file_index>  (121) 
12

>  <i_lp_mmshare_version>  (121) 
48012

>  <i_f3d_flags>  (121) 
0

>  <s_epik_input>  (121) 
W0NIM11bQ0gyXVtDSDJdT1tDSDJdW0NAQEhdMVtDQEBIXShbQ0hdPVtDSDJdKVtDQEhdKFtDQF0xMltPSF0pW0NAQEhdM1tDQEBIXTRbQ0BIXTVbQ0BASF00W0NASF0yW0NASF0zNQ==

>  <s_epik_cmdline>  (121) 
J2VwaWtfcHl0aG9uJywgJy1waHQnLCAnMi4wJywgJy1waCcsICc3LjAnLCAnLXRuJywgJzgnLCAnLW1hJywgJzIwMCcsICctaW1hZScsICc8aW5maWxlLm1hZT4nLCAnLW9tYWUnLCAnPG91dGZpbGUubWFlPic=

>  <r_lp_tautomer_probability>  (121) 
1

>  <r_epik_Ionization_Penalty>  (121) 
7.57477e-07

>  <r_epik_Ionization_Penalty_Charging>  (121) 
0

>  <r_epik_Ionization_Penalty_Neutral>  (121) 
7.57477e-07

>  <r_epik_State_Penalty>  (121) 
-0

>  <r_epik_Charging_Adjusted_Penalty>  (121) 
0

>  <i_epik_Tot_Q>  (121) 
0

>  <i_epik_Tot_abs_Q>  (121) 
0

>  <s_lp_Force_Field>  (121) 
OPLS3e

>  <r_lp_Energy>  (121) 
220.829

>  <b_lp_Chiralities_Consistent>  (121) 
1

>  <s_lp_Variant>  (121) 
35:0-1

>  <s_i_glide_gridfile>  (121) 
pfpi4k_grid

>  <i_i_glide_lignum>  (121) 
12

>  <i_i_glide_rotatable_bonds>  (121) 
6

>  <r_i_docking_score>  (121) 
-2.73367

>  <r_i_glide_ligand_efficiency>  (121) 
-0.15187

>  <r_i_glide_ligand_efficiency_sa>  (121) 
-0.398013

>  <r_i_glide_ligand_efficiency_ln>  (121) 
-0.702675

>  <r_i_glide_gscore>  (121) 
-2.73367

>  <r_i_glide_lipo>  (121) 
-0.52547

>  <r_i_glide_hbond>  (121) 
0

>  <r_i_glide_metal>  (121) 
-0

>  <r_i_glide_rewards>  (121) 
-1.72947

>  <r_i_glide_evdw>  (121) 
-13.4914

>  <r_i_glide_ecoul>  (121) 
-6.35182

>  <r_i_glide_erotb>  (121) 
1.14861

>  <r_i_glide_esite>  (121) 
0

>  <r_i_glide_emodel>  (121) 
-21.9183

>  <r_i_glide_energy>  (121) 
-19.8432

>  <r_i_glide_einternal>  (121) 
1.83271

>  <r_i_glide_intrahb_reward>  (121) 
-0

>  <i_i_glide_confnum>  (121) 
6

>  <i_i_glide_posenum>  (121) 
4

>  <r_i_glide_eff_state_penalty>  (121) 
0

>  <ligand_id>  (121) 
35

>  <original_smiles>  (121) 
C=CC1C(COCCC)C2(O)C1C1C3C4C3C2C41

>  <smiles>  (121) 
[H]OC12C([H])(C([H])([H])OC([H])([H])C([H])([H])C([H])([H])[H])C([H])(C([H])=C([H])[H])C1([H])C1([H])C3([H])C4([H])C3([H])C2([H])C41[H]

$$$$
35:0:1
     RDKit          3D

 40 44  0  0  1  0  0  0  0  0999 V2000
    4.6372   -9.4451    2.5004 C   0  0  0  0  0  0  0  0  0  0  0  0
    3.6888   -8.5700    2.8763 C   0  0  0  0  0  0  0  0  0  0  0  0
    2.4850   -8.1882    2.0082 C   0  0  2  0  0  0  0  0  0  0  0  0
    2.2063   -6.6757    1.8967 C   0  0  1  0  0  0  0  0  0  0  0  0
    2.5747   -5.9871    0.5730 C   0  0  0  0  0  0  0  0  0  0  0  0
    2.6804   -4.5794    0.7575 O   0  0  0  0  0  0  0  0  0  0  0  0
    3.0423   -3.9089   -0.4460 C   0  0  0  0  0  0  0  0  0  0  0  0
    3.4544   -2.4775   -0.0942 C   0  0  0  0  0  0  0  0  0  0  0  0
    3.8403   -1.6499   -1.3243 C   0  0  0  0  0  0  0  0  0  0  0  0
    0.7236   -6.8740    2.3208 C   0  0  1  0  0  0  0  0  0  0  0  0
   -0.1826   -6.6782    1.2686 O   0  0  0  0  0  0  0  0  0  0  0  0
    1.1014   -8.4324    2.6358 C   0  0  2  0  0  0  0  0  0  0  0  0
    0.9043   -8.7457    4.2066 C   0  0  1  0  0  0  0  0  0  0  0  0
   -0.3676   -8.4366    5.1483 C   0  0  2  0  0  0  0  0  0  0  0  0
   -0.7134   -7.7392    4.2665 C   0  0  1  0  0  0  0  0  0  0  0  0
   -0.8202   -6.6985    4.8103 C   0  0  2  0  0  0  0  0  0  0  0  0
    0.2529   -6.1825    3.7112 C   0  0  2  0  0  0  0  0  0  0  0  0
    0.8622   -7.3240    4.3181 C   0  0  2  0  0  0  0  0  0  0  0  0
    4.5852   -9.9496    1.5420 H   0  0  0  0  0  0  0  0  0  0  0  0
    5.4721   -9.7027    3.1412 H   0  0  0  0  0  0  0  0  0  0  0  0
    3.7941   -8.1041    3.8550 H   0  0  0  0  0  0  0  0  0  0  0  0
    2.5634   -8.6349    1.0229 H   0  0  0  0  0  0  0  0  0  0  0  0
    2.7239   -6.1918    2.7203 H   0  0  0  0  0  0  0  0  0  0  0  0
    3.5369   -6.3714    0.2201 H   0  0  0  0  0  0  0  0  0  0  0  0
    1.8585   -6.2021   -0.2186 H   0  0  0  0  0  0  0  0  0  0  0  0
    3.8758   -4.4109   -0.9336 H   0  0  0  0  0  0  0  0  0  0  0  0
    2.1996   -3.9225   -1.1353 H   0  0  0  0  0  0  0  0  0  0  0  0
    2.6397   -1.9774    0.4327 H   0  0  0  0  0  0  0  0  0  0  0  0
    4.2991   -2.5069    0.5963 H   0  0  0  0  0  0  0  0  0  0  0  0
    4.1595   -0.6496   -1.0320 H   0  0  0  0  0  0  0  0  0  0  0  0
    2.9919   -1.5391   -2.0022 H   0  0  0  0  0  0  0  0  0  0  0  0
    4.6586   -2.1124   -1.8789 H   0  0  0  0  0  0  0  0  0  0  0  0
   -0.4029   -7.5514    0.9498 H   0  0  0  0  0  0  0  0  0  0  0  0
    0.5583   -9.1301    2.0006 H   0  0  0  0  0  0  0  0  0  0  0  0
    1.7497   -9.2077    4.7154 H   0  0  0  0  0  0  0  0  0  0  0  0
   -1.0318   -9.2035    5.5127 H   0  0  0  0  0  0  0  0  0  0  0  0
   -1.2597   -8.0544    3.3823 H   0  0  0  0  0  0  0  0  0  0  0  0
   -1.8035   -6.2656    4.9342 H   0  0  0  0  0  0  0  0  0  0  0  0
    0.7524   -5.2494    3.9536 H   0  0  0  0  0  0  0  0  0  0  0  0
    1.3338   -7.0247    5.2487 H   0  0  0  0  0  0  0  0  0  0  0  0
  1  2  2  0
  1 19  1  0
  1 20  1  0
  2  3  1  0
  2 21  1  0
  3 12  1  0
  3  4  1  0
  3 22  1  6
  4  5  1  0
  4 10  1  0
  4 23  1  1
  5  6  1  0
  5 24  1  0
  5 25  1  0
  6  7  1  0
  7  8  1  0
  7 26  1  0
  7 27  1  0
  8  9  1  0
  8 28  1  0
  8 29  1  0
  9 30  1  0
  9 31  1  0
  9 32  1  0
 10 17  1  0
 10 11  1  6
 10 12  1  0
 11 33  1  0
 12 13  1  0
 12 34  1  6
 13 18  1  0
 13 14  1  0
 13 35  1  1
 14 16  1  0
 14 15  1  0
 14 36  1  1
 15 18  1  0
 15 16  1  0
 15 37  1  6
 16 17  1  0
 16 38  1  1
 17 18  1  0
 17 39  1  1
 18 40  1  1
M  END
>  <i_m_ct_stereo_status>  (122) 
1

>  <s_m_source_file>  (122) 
/var/tmp/pbs.5076255.sched01/tmp5eg4wc32/41mqp692j8.sdf

>  <i_m_source_file_index>  (122) 
12

>  <i_lp_mmshare_version>  (122) 
48012

>  <i_f3d_flags>  (122) 
0

>  <s_epik_input>  (122) 
W0NIM11bQ0gyXVtDSDJdT1tDSDJdW0NAQEhdMVtDQEBIXShbQ0hdPVtDSDJdKVtDQEhdKFtDQF0xMltPSF0pW0NAQEhdM1tDQEBIXTRbQ0BIXTVbQ0BASF00W0NASF0yW0NASF0zNQ==

>  <s_epik_cmdline>  (122) 
J2VwaWtfcHl0aG9uJywgJy1waHQnLCAnMi4wJywgJy1waCcsICc3LjAnLCAnLXRuJywgJzgnLCAnLW1hJywgJzIwMCcsICctaW1hZScsICc8aW5maWxlLm1hZT4nLCAnLW9tYWUnLCAnPG91dGZpbGUubWFlPic=

>  <r_lp_tautomer_probability>  (122) 
1

>  <r_epik_Ionization_Penalty>  (122) 
7.57477e-07

>  <r_epik_Ionization_Penalty_Charging>  (122) 
0

>  <r_epik_Ionization_Penalty_Neutral>  (122) 
7.57477e-07

>  <r_epik_State_Penalty>  (122) 
-0

>  <r_epik_Charging_Adjusted_Penalty>  (122) 
0

>  <i_epik_Tot_Q>  (122) 
0

>  <i_epik_Tot_abs_Q>  (122) 
0

>  <s_lp_Force_Field>  (122) 
OPLS3e

>  <r_lp_Energy>  (122) 
220.829

>  <b_lp_Chiralities_Consistent>  (122) 
1

>  <s_lp_Variant>  (122) 
35:0-1

>  <s_i_glide_gridfile>  (122) 
pfpi4k_grid

>  <i_i_glide_lignum>  (122) 
12

>  <i_i_glide_rotatable_bonds>  (122) 
6

>  <r_i_docking_score>  (122) 
-2.37037

>  <r_i_glide_ligand_efficiency>  (122) 
-0.131687

>  <r_i_glide_ligand_efficiency_sa>  (122) 
-0.345119

>  <r_i_glide_ligand_efficiency_ln>  (122) 
-0.609293

>  <r_i_glide_gscore>  (122) 
-2.37037

>  <r_i_glide_lipo>  (122) 
0

>  <r_i_glide_hbond>  (122) 
-0.205973

>  <r_i_glide_metal>  (122) 
-0

>  <r_i_glide_rewards>  (122) 
-1.72947

>  <r_i_glide_evdw>  (122) 
-16.1972

>  <r_i_glide_ecoul>  (122) 
-5.15792

>  <r_i_glide_erotb>  (122) 
1.14861

>  <r_i_glide_esite>  (122) 
0

>  <r_i_glide_emodel>  (122) 
-23.1874

>  <r_i_glide_energy>  (122) 
-21.3551

>  <r_i_glide_einternal>  (122) 
1.94992

>  <r_i_glide_intrahb_reward>  (122) 
-0

>  <i_i_glide_confnum>  (122) 
1

>  <i_i_glide_posenum>  (122) 
30

>  <r_i_glide_eff_state_penalty>  (122) 
0

>  <ligand_id>  (122) 
35

>  <original_smiles>  (122) 
C=CC1C(COCCC)C2(O)C1C1C3C4C3C2C41

>  <smiles>  (122) 
[H]OC12C([H])(C([H])([H])OC([H])([H])C([H])([H])C([H])([H])[H])C([H])(C([H])=C([H])[H])C1([H])C1([H])C3([H])C4([H])C3([H])C2([H])C41[H]

$$$$
35:0:2
     RDKit          3D

 40 44  0  0  1  0  0  0  0  0999 V2000
    4.7933   -9.1355    2.3143 C   0  0  0  0  0  0  0  0  0  0  0  0
    3.7790   -8.3319    2.7089 C   0  0  0  0  0  0  0  0  0  0  0  0
    2.5676   -8.0276    1.8402 C   0  0  2  0  0  0  0  0  0  0  0  0
    2.2037   -6.5370    1.6968 C   0  0  1  0  0  0  0  0  0  0  0  0
    2.5382   -5.8541    0.3898 C   0  0  0  0  0  0  0  0  0  0  0  0
    2.4445   -4.4358    0.5087 O   0  0  0  0  0  0  0  0  0  0  0  0
    2.8914   -3.7407   -0.6573 C   0  0  0  0  0  0  0  0  0  0  0  0
    1.8086   -3.6587   -1.7387 C   0  0  0  0  0  0  0  0  0  0  0  0
    2.3222   -3.0509   -3.0460 C   0  0  0  0  0  0  0  0  0  0  0  0
    0.7336   -6.8067    2.1158 C   0  0  1  0  0  0  0  0  0  0  0  0
   -0.1858   -6.6716    1.0496 O   0  0  0  0  0  0  0  0  0  0  0  0
    1.1926   -8.3481    2.4510 C   0  0  2  0  0  0  0  0  0  0  0  0
    0.9967   -8.6578    4.0146 C   0  0  1  0  0  0  0  0  0  0  0  0
   -0.2839   -8.4125    4.9600 C   0  0  2  0  0  0  0  0  0  0  0  0
   -0.6656   -7.7316    4.0682 C   0  0  1  0  0  0  0  0  0  0  0  0
   -0.8250   -6.6805    4.5962 C   0  0  2  0  0  0  0  0  0  0  0  0
    0.2211   -6.1386    3.4921 C   0  0  2  0  0  0  0  0  0  0  0  0
    0.8864   -7.2376    4.1116 C   0  0  2  0  0  0  0  0  0  0  0  0
    4.7773   -9.6283    1.3469 H   0  0  0  0  0  0  0  0  0  0  0  0
    5.6361   -9.3415    2.9499 H   0  0  0  0  0  0  0  0  0  0  0  0
    3.8524   -7.8739    3.6818 H   0  0  0  0  0  0  0  0  0  0  0  0
    2.6645   -8.5010    0.8766 H   0  0  0  0  0  0  0  0  0  0  0  0
    2.6812   -6.0197    2.5236 H   0  0  0  0  0  0  0  0  0  0  0  0
    3.5592   -6.1218    0.0938 H   0  0  0  0  0  0  0  0  0  0  0  0
    1.8890   -6.2021   -0.4170 H   0  0  0  0  0  0  0  0  0  0  0  0
    3.1491   -2.7341   -0.3384 H   0  0  0  0  0  0  0  0  0  0  0  0
    3.8086   -4.1789   -1.0411 H   0  0  0  0  0  0  0  0  0  0  0  0
    1.4059   -4.6517   -1.9523 H   0  0  0  0  0  0  0  0  0  0  0  0
    0.9678   -3.0642   -1.3902 H   0  0  0  0  0  0  0  0  0  0  0  0
    1.5182   -2.9905   -3.7826 H   0  0  0  0  0  0  0  0  0  0  0  0
    3.1178   -3.6622   -3.4727 H   0  0  0  0  0  0  0  0  0  0  0  0
    2.7034   -2.0442   -2.8854 H   0  0  0  0  0  0  0  0  0  0  0  0
   -0.3647   -7.5597    0.7647 H   0  0  0  0  0  0  0  0  0  0  0  0
    0.6931   -9.0704    1.8077 H   0  0  0  0  0  0  0  0  0  0  0  0
    1.8759   -9.0617    4.5436 H   0  0  0  0  0  0  0  0  0  0  0  0
   -0.9222   -9.2123    5.2973 H   0  0  0  0  0  0  0  0  0  0  0  0
   -1.1792   -8.0824    3.1840 H   0  0  0  0  0  0  0  0  0  0  0  0
   -1.8300   -6.3073    4.6900 H   0  0  0  0  0  0  0  0  0  0  0  0
    0.6778   -5.1710    3.7424 H   0  0  0  0  0  0  0  0  0  0  0  0
    1.3372   -6.9059    5.0444 H   0  0  0  0  0  0  0  0  0  0  0  0
  1  2  2  0
  1 19  1  0
  1 20  1  0
  2  3  1  0
  2 21  1  0
  3 12  1  0
  3  4  1  0
  3 22  1  6
  4  5  1  0
  4 10  1  0
  4 23  1  1
  5  6  1  0
  5 24  1  0
  5 25  1  0
  6  7  1  0
  7  8  1  0
  7 26  1  0
  7 27  1  0
  8  9  1  0
  8 28  1  0
  8 29  1  0
  9 30  1  0
  9 31  1  0
  9 32  1  0
 10 17  1  0
 10 11  1  6
 10 12  1  0
 11 33  1  0
 12 13  1  0
 12 34  1  6
 13 18  1  0
 13 14  1  0
 13 35  1  1
 14 16  1  0
 14 15  1  0
 14 36  1  1
 15 18  1  0
 15 16  1  0
 15 37  1  6
 16 17  1  0
 16 38  1  1
 17 18  1  0
 17 39  1  1
 18 40  1  1
M  END
>  <i_m_ct_stereo_status>  (123) 
1

>  <s_m_source_file>  (123) 
/var/tmp/pbs.5076255.sched01/tmp5eg4wc32/41mqp692j8.sdf

>  <i_m_source_file_index>  (123) 
12

>  <i_lp_mmshare_version>  (123) 
48012

>  <i_f3d_flags>  (123) 
0

>  <s_epik_input>  (123) 
W0NIM11bQ0gyXVtDSDJdT1tDSDJdW0NAQEhdMVtDQEBIXShbQ0hdPVtDSDJdKVtDQEhdKFtDQF0xMltPSF0pW0NAQEhdM1tDQEBIXTRbQ0BIXTVbQ0BASF00W0NASF0yW0NASF0zNQ==

>  <s_epik_cmdline>  (123) 
J2VwaWtfcHl0aG9uJywgJy1waHQnLCAnMi4wJywgJy1waCcsICc3LjAnLCAnLXRuJywgJzgnLCAnLW1hJywgJzIwMCcsICctaW1hZScsICc8aW5maWxlLm1hZT4nLCAnLW9tYWUnLCAnPG91dGZpbGUubWFlPic=

>  <r_lp_tautomer_probability>  (123) 
1

>  <r_epik_Ionization_Penalty>  (123) 
7.57477e-07

>  <r_epik_Ionization_Penalty_Charging>  (123) 
0

>  <r_epik_Ionization_Penalty_Neutral>  (123) 
7.57477e-07

>  <r_epik_State_Penalty>  (123) 
-0

>  <r_epik_Charging_Adjusted_Penalty>  (123) 
0

>  <i_epik_Tot_Q>  (123) 
0

>  <i_epik_Tot_abs_Q>  (123) 
0

>  <s_lp_Force_Field>  (123) 
OPLS3e

>  <r_lp_Energy>  (123) 
220.829

>  <b_lp_Chiralities_Consistent>  (123) 
1

>  <s_lp_Variant>  (123) 
35:0-1

>  <s_i_glide_gridfile>  (123) 
pfpi4k_grid

>  <i_i_glide_lignum>  (123) 
12

>  <i_i_glide_rotatable_bonds>  (123) 
6

>  <r_i_docking_score>  (123) 
-2.3613

>  <r_i_glide_ligand_efficiency>  (123) 
-0.131184

>  <r_i_glide_ligand_efficiency_sa>  (123) 
-0.343798

>  <r_i_glide_ligand_efficiency_ln>  (123) 
-0.606961

>  <r_i_glide_gscore>  (123) 
-2.3613

>  <r_i_glide_lipo>  (123) 
-0.154553

>  <r_i_glide_hbond>  (123) 
0

>  <r_i_glide_metal>  (123) 
-0

>  <r_i_glide_rewards>  (123) 
-1.72947

>  <r_i_glide_evdw>  (123) 
-16.8419

>  <r_i_glide_ecoul>  (123) 
-5.22535

>  <r_i_glide_erotb>  (123) 
1.14861

>  <r_i_glide_esite>  (123) 
0

>  <r_i_glide_emodel>  (123) 
-24.1741

>  <r_i_glide_energy>  (123) 
-22.0672

>  <r_i_glide_einternal>  (123) 
2.61369

>  <r_i_glide_intrahb_reward>  (123) 
-0

>  <i_i_glide_confnum>  (123) 
1

>  <i_i_glide_posenum>  (123) 
18

>  <r_i_glide_eff_state_penalty>  (123) 
0

>  <ligand_id>  (123) 
35

>  <original_smiles>  (123) 
C=CC1C(COCCC)C2(O)C1C1C3C4C3C2C41

>  <smiles>  (123) 
[H]OC12C([H])(C([H])([H])OC([H])([H])C([H])([H])C([H])([H])[H])C([H])(C([H])=C([H])[H])C1([H])C1([H])C3([H])C4([H])C3([H])C2([H])C41[H]

$$$$
36:0:0
     RDKit          3D

103110  0  0  1  0  0  0  0  0999 V2000
    3.2688   -1.2403   10.1647 C   0  0  0  0  0  0  0  0  0  0  0  0
    2.2308   -1.1098    9.0581 C   0  0  0  0  0  0  0  0  0  0  0  0
    1.0473   -1.3971    9.2415 O   0  0  0  0  0  0  0  0  0  0  0  0
    2.7641   -0.6925    7.9008 O   0  0  0  0  0  0  0  0  0  0  0  0
    1.9628   -0.6653    6.7246 C   0  0  0  0  0  0  0  0  0  0  0  0
    2.7479   -0.3929    5.4220 C   0  0  1  0  0  0  0  0  0  0  0  0
    2.5583    0.7122    4.3812 C   0  0  1  0  0  0  0  0  0  0  0  0
    1.3704    1.4229    4.0422 O   0  0  0  0  0  0  0  0  0  0  0  0
    0.1743    1.5599    4.7797 C   0  0  2  0  0  0  0  0  0  0  0  0
   -0.5238    2.6167    3.8849 C   0  0  0  0  0  0  0  0  0  0  0  0
   -1.4822    3.3868    4.7796 C   0  0  0  0  0  0  0  0  0  0  0  0
   -0.7050    3.5728    6.0926 C   0  0  0  0  0  0  0  0  0  0  0  0
   -0.1670    5.0319    6.0921 C   0  0  0  0  0  0  0  0  0  0  0  0
   -1.6476    3.4582    7.3119 C   0  0  0  0  0  0  0  0  0  0  0  0
    0.3957    2.4215    6.0827 C   0  0  2  0  0  0  0  0  0  0  0  0
    1.8517    2.9984    6.1739 C   0  0  0  0  0  0  0  0  0  0  0  0
    3.0444    2.0818    6.5330 C   0  0  0  0  0  0  0  0  0  0  0  0
    3.4590    0.9707    5.5456 C   0  0  1  0  0  0  0  0  0  0  0  0
    4.9662    0.8547    5.4045 C   0  0  1  0  0  0  0  0  0  0  0  0
    5.5555    0.3535    6.5898 O   0  0  0  0  0  0  0  0  0  0  0  0
    5.3849    0.0186    4.1757 C   0  0  0  0  0  0  0  0  0  0  0  0
    4.7122   -1.3821    3.8918 C   0  0  2  0  0  0  0  0  0  0  0  0
    4.9426   -1.8883    2.3661 C   0  0  1  0  0  0  0  0  0  0  0  0
    6.0621   -1.0625    1.6450 C   0  0  0  0  0  0  0  0  0  0  0  0
    5.4719   -3.3688    2.2256 C   0  0  1  0  0  0  0  0  0  0  0  0
    5.0094   -4.4565    3.2072 C   0  0  0  0  0  0  0  0  0  0  0  0
    3.5051   -4.7564    3.2712 C   0  0  1  0  0  0  0  0  0  0  0  0
    3.1418   -5.6864    4.4471 C   0  0  0  0  0  0  0  0  0  0  0  0
    2.5425   -3.5627    2.9457 C   0  0  2  0  0  0  0  0  0  0  0  0
    2.7883   -2.9751    1.5234 C   0  0  2  0  0  0  0  0  0  0  0  0
    3.1141   -4.0188    0.5903 O   0  0  0  0  0  0  0  0  0  0  0  0
    4.4274   -4.3250    0.1501 C   0  0  0  0  0  0  0  0  0  0  0  0
    4.5667   -5.8628    0.1184 C   0  0  0  0  0  0  0  0  0  0  0  0
    4.5686   -3.8081   -1.2983 C   0  0  0  0  0  0  0  0  0  0  0  0
    5.5248   -3.7996    0.8587 O   0  0  0  0  0  0  0  0  0  0  0  0
    3.7290   -1.7755    1.4341 C   0  0  1  0  0  0  0  0  0  0  0  0
    3.0833   -0.5313    1.4677 O   0  0  0  0  0  0  0  0  0  0  0  0
    2.1702   -2.5062    4.0675 C   0  0  2  0  0  0  0  0  0  0  0  0
    1.5484   -3.3465    5.0248 O   0  0  0  0  0  0  0  0  0  0  0  0
    0.9243   -1.6397    3.5893 C   0  0  0  0  0  0  0  0  0  0  0  0
   -0.1892   -1.2150    4.6153 C   0  0  0  0  0  0  0  0  0  0  0  0
   -0.7444    0.2448    4.7557 C   0  0  1  0  0  0  0  0  0  0  0  0
   -1.7790    0.1865    5.9008 C   0  0  0  0  0  0  0  0  0  0  0  0
    3.3809   -1.7033    4.7940 C   0  0  2  0  0  0  0  0  0  0  0  0
    3.9578   -2.5438    5.9978 C   0  0  0  0  0  0  0  0  0  0  0  0
    3.8496   -0.3216   10.2350 H   0  0  0  0  0  0  0  0  0  0  0  0
    3.9503   -2.0618    9.9409 H   0  0  0  0  0  0  0  0  0  0  0  0
    2.7969   -1.4363   11.1302 H   0  0  0  0  0  0  0  0  0  0  0  0
    1.4860   -1.6343    6.6909 H   0  0  0  0  0  0  0  0  0  0  0  0
    1.1891    0.0757    6.8562 H   0  0  0  0  0  0  0  0  0  0  0  0
    3.0839    0.6903    3.4462 H   0  0  0  0  0  0  0  0  0  0  0  0
    0.2115    3.3336    3.5096 H   0  0  0  0  0  0  0  0  0  0  0  0
   -1.0085    2.2229    2.9907 H   0  0  0  0  0  0  0  0  0  0  0  0
   -1.7750    4.3281    4.3141 H   0  0  0  0  0  0  0  0  0  0  0  0
   -2.4075    2.8353    4.9195 H   0  0  0  0  0  0  0  0  0  0  0  0
    0.3449    5.2854    7.0204 H   0  0  0  0  0  0  0  0  0  0  0  0
   -0.9847    5.7453    6.0019 H   0  0  0  0  0  0  0  0  0  0  0  0
    0.5086    5.2304    5.2584 H   0  0  0  0  0  0  0  0  0  0  0  0
   -1.1144    3.6694    8.2384 H   0  0  0  0  0  0  0  0  0  0  0  0
   -2.0864    2.4699    7.4167 H   0  0  0  0  0  0  0  0  0  0  0  0
   -2.4749    4.1618    7.2453 H   0  0  0  0  0  0  0  0  0  0  0  0
    0.2400    1.8244    6.9779 H   0  0  0  0  0  0  0  0  0  0  0  0
    2.0910    3.5496    5.2631 H   0  0  0  0  0  0  0  0  0  0  0  0
    1.8628    3.7347    6.9744 H   0  0  0  0  0  0  0  0  0  0  0  0
    3.8980    2.7477    6.6499 H   0  0  0  0  0  0  0  0  0  0  0  0
    2.9130    1.6780    7.5318 H   0  0  0  0  0  0  0  0  0  0  0  0
    5.3719    1.8590    5.2812 H   0  0  0  0  0  0  0  0  0  0  0  0
    6.4948    0.3850    6.5081 H   0  0  0  0  0  0  0  0  0  0  0  0
    5.1954    0.6706    3.3304 H   0  0  0  0  0  0  0  0  0  0  0  0
    6.4675   -0.0966    4.2091 H   0  0  0  0  0  0  0  0  0  0  0  0
    5.4782   -1.9907    4.3632 H   0  0  0  0  0  0  0  0  0  0  0  0
    6.3140   -1.4853    0.6706 H   0  0  0  0  0  0  0  0  0  0  0  0
    6.9985   -1.0444    2.2048 H   0  0  0  0  0  0  0  0  0  0  0  0
    5.7687   -0.0361    1.4267 H   0  0  0  0  0  0  0  0  0  0  0  0
    6.5352   -3.3058    2.4514 H   0  0  0  0  0  0  0  0  0  0  0  0
    5.5322   -5.3805    2.9584 H   0  0  0  0  0  0  0  0  0  0  0  0
    5.4237   -4.2358    4.1796 H   0  0  0  0  0  0  0  0  0  0  0  0
    3.3168   -5.4444    2.4527 H   0  0  0  0  0  0  0  0  0  0  0  0
    3.3132   -5.2435    5.4256 H   0  0  0  0  0  0  0  0  0  0  0  0
    3.7447   -6.5966    4.4116 H   0  0  0  0  0  0  0  0  0  0  0  0
    2.0967   -5.9965    4.3925 H   0  0  0  0  0  0  0  0  0  0  0  0
    1.6095   -4.1043    2.7853 H   0  0  0  0  0  0  0  0  0  0  0  0
    1.8280   -2.6267    1.1469 H   0  0  0  0  0  0  0  0  0  0  0  0
    4.7139   -6.2929    1.1064 H   0  0  0  0  0  0  0  0  0  0  0  0
    5.4206   -6.1514   -0.4912 H   0  0  0  0  0  0  0  0  0  0  0  0
    3.6714   -6.2978   -0.3242 H   0  0  0  0  0  0  0  0  0  0  0  0
    4.5360   -2.7232   -1.3600 H   0  0  0  0  0  0  0  0  0  0  0  0
    3.7642   -4.2083   -1.9149 H   0  0  0  0  0  0  0  0  0  0  0  0
    5.5204   -4.1359   -1.7209 H   0  0  0  0  0  0  0  0  0  0  0  0
    4.0774   -1.7423    0.4103 H   0  0  0  0  0  0  0  0  0  0  0  0
    3.6516    0.1187    1.0876 H   0  0  0  0  0  0  0  0  0  0  0  0
    2.1940   -3.9714    5.3171 H   0  0  0  0  0  0  0  0  0  0  0  0
    1.1944   -0.8077    2.9551 H   0  0  0  0  0  0  0  0  0  0  0  0
    0.3857   -2.2705    2.8863 H   0  0  0  0  0  0  0  0  0  0  0  0
   -1.0556   -1.7753    4.2559 H   0  0  0  0  0  0  0  0  0  0  0  0
   -0.0946   -1.6722    5.5929 H   0  0  0  0  0  0  0  0  0  0  0  0
   -1.3458    0.3267    3.8507 H   0  0  0  0  0  0  0  0  0  0  0  0
   -1.2907    0.1904    6.8731 H   0  0  0  0  0  0  0  0  0  0  0  0
   -2.3729   -0.7237    5.8382 H   0  0  0  0  0  0  0  0  0  0  0  0
   -2.4955    0.9958    5.8722 H   0  0  0  0  0  0  0  0  0  0  0  0
    4.4621   -3.4505    5.7136 H   0  0  0  0  0  0  0  0  0  0  0  0
    3.2306   -2.8739    6.7353 H   0  0  0  0  0  0  0  0  0  0  0  0
    4.7025   -1.9718    6.5472 H   0  0  0  0  0  0  0  0  0  0  0  0
  1  2  1  0
  1 46  1  0
  1 47  1  0
  1 48  1  0
  2  3  2  0
  2  4  1  0
  4  5  1  0
  6  5  1  1
  5 49  1  0
  5 50  1  0
  6 18  1  0
  6 44  1  0
  6  7  1  0
  7 18  1  0
  7  8  1  0
  7 51  1  6
  8  9  1  0
  9 15  1  0
  9 42  1  0
  9 10  1  6
 10 11  1  0
 10 52  1  0
 10 53  1  0
 11 12  1  0
 11 54  1  0
 11 55  1  0
 12 13  1  0
 12 14  1  0
 12 15  1  0
 13 56  1  0
 13 57  1  0
 13 58  1  0
 14 59  1  0
 14 60  1  0
 14 61  1  0
 15 16  1  0
 15 62  1  1
 16 17  1  0
 16 63  1  0
 16 64  1  0
 18 17  1  1
 17 65  1  0
 17 66  1  0
 18 19  1  0
 19 20  1  0
 19 21  1  0
 19 67  1  6
 20 68  1  0
 21 22  1  0
 21 69  1  0
 21 70  1  0
 22 44  1  0
 22 23  1  0
 22 71  1  1
 23 36  1  0
 23 24  1  6
 23 25  1  0
 24 72  1  0
 24 73  1  0
 24 74  1  0
 25 35  1  0
 25 26  1  0
 25 75  1  1
 26 27  1  0
 26 76  1  0
 26 77  1  0
 27 28  1  0
 27 29  1  0
 27 78  1  6
 28 79  1  0
 28 80  1  0
 28 81  1  0
 29 30  1  0
 29 38  1  0
 29 82  1  6
 30 31  1  0
 30 36  1  0
 30 83  1  6
 31 32  1  0
 32 33  1  0
 32 34  1  0
 32 35  1  0
 33 84  1  0
 33 85  1  0
 33 86  1  0
 34 87  1  0
 34 88  1  0
 34 89  1  0
 36 37  1  0
 36 90  1  6
 37 91  1  0
 38 39  1  1
 38 40  1  0
 38 44  1  0
 39 92  1  0
 40 41  1  0
 40 93  1  0
 40 94  1  0
 41 42  1  0
 41 95  1  0
 41 96  1  0
 42 43  1  0
 42 97  1  6
 43 98  1  0
 43 99  1  0
 43100  1  0
 44 45  1  1
 45101  1  0
 45102  1  0
 45103  1  0
M  END
>  <i_m_ct_stereo_status>  (124) 
1

>  <s_m_source_file>  (124) 
/var/tmp/pbs.5076255.sched01/tmp5eg4wc32/41mqp692j8.sdf

>  <i_m_source_file_index>  (124) 
13

>  <i_lp_mmshare_version>  (124) 
48012

>  <i_f3d_flags>  (124) 
0

>  <s_epik_input>  (124) 
W0NIMl0xW0NIMl1DKFtDSDNdKShbQ0gzXSlbQ0BASF0oW0NAQF0xMjMpW0NIMl1bQ0gyXVtDQEBdNDVbQ0BdKFtDQEhdNE8yKShbQ0gyXU9DKD1PKVtDSDNdKVtDQF02KFtDSDNdKVtDQEhdKFtDSDJdW0NAQEhdNVtPSF0pW0NAQF03KFtDSDNdKVtDQEhdOFtDSDJdW0NAQEhdKFtDSDNdKVtDQEhdKFtDQEBIXShbQ0BIXTdbT0hdKU9DKE84KShbQ0gzXSlbQ0gzXSlbQ0BdNihbT0hdKVtDSDJdW0NIMl1bQ0BIXTNbQ0gzXQ==

>  <s_epik_cmdline>  (124) 
J2VwaWtfcHl0aG9uJywgJy1waHQnLCAnMi4wJywgJy1waCcsICc3LjAnLCAnLXRuJywgJzgnLCAnLW1hJywgJzIwMCcsICctaW1hZScsICc8aW5maWxlLm1hZT4nLCAnLW9tYWUnLCAnPG91dGZpbGUubWFlPic=

>  <r_lp_tautomer_probability>  (124) 
1

>  <r_epik_Ionization_Penalty>  (124) 
8.04879e-07

>  <r_epik_Ionization_Penalty_Charging>  (124) 
0

>  <r_epik_Ionization_Penalty_Neutral>  (124) 
8.04879e-07

>  <r_epik_State_Penalty>  (124) 
-0

>  <r_epik_Charging_Adjusted_Penalty>  (124) 
0

>  <i_epik_Tot_Q>  (124) 
0

>  <i_epik_Tot_abs_Q>  (124) 
0

>  <s_epik_Chemistry_Notes>  (124) 
This compound has an ester and may undergo hydrolysis at high or low pH.

>  <s_lp_Force_Field>  (124) 
OPLS3e

>  <r_lp_Energy>  (124) 
197.098

>  <b_lp_Chiralities_Consistent>  (124) 
1

>  <s_lp_Variant>  (124) 
36:0-1

>  <s_i_glide_gridfile>  (124) 
pfpi4k_grid

>  <i_i_glide_lignum>  (124) 
13

>  <i_i_glide_rotatable_bonds>  (124) 
6

>  <r_i_docking_score>  (124) 
-2.0426

>  <r_i_glide_ligand_efficiency>  (124) 
-0.045391

>  <r_i_glide_ligand_efficiency_sa>  (124) 
-0.161451

>  <r_i_glide_ligand_efficiency_ln>  (124) 
-0.424951

>  <r_i_glide_gscore>  (124) 
-2.0426

>  <r_i_glide_lipo>  (124) 
-0.506905

>  <r_i_glide_hbond>  (124) 
0

>  <r_i_glide_metal>  (124) 
-0

>  <r_i_glide_rewards>  (124) 
-0.0230452

>  <r_i_glide_evdw>  (124) 
-32.8798

>  <r_i_glide_ecoul>  (124) 
0.167118

>  <r_i_glide_erotb>  (124) 
0.106277

>  <r_i_glide_esite>  (124) 
0

>  <r_i_glide_emodel>  (124) 
-35.6538

>  <r_i_glide_energy>  (124) 
-32.7127

>  <r_i_glide_einternal>  (124) 
1.61949

>  <r_i_glide_intrahb_reward>  (124) 
-0

>  <i_i_glide_confnum>  (124) 
2

>  <i_i_glide_posenum>  (124) 
28

>  <r_i_glide_eff_state_penalty>  (124) 
0

>  <ligand_id>  (124) 
36

>  <original_smiles>  (124) 
CC(=O)OCC12C3OC45CCC(C)(C)C4CCC31C(O)CC1C3(C)C4CC(C)C(C(OC(C)(C)O4)C3O)C(O)(CCC5C)C12C

>  <smiles>  (124) 
[H]OC1([H])C2([H])OC(C([H])([H])[H])(C([H])([H])[H])OC3([H])C([H])([H])C([H])(C([H])([H])[H])C2([H])C2(O[H])C([H])([H])C([H])([H])C([H])(C([H])([H])[H])C45OC6([H])C7(C([H])([H])C([H])([H])C4([H])C(C([H])([H])[H])(C([H])([H])[H])C([H])([H])C5([H])[H])C([H])(O[H])C([H])([H])C([H])(C31C([H])([H])[H])C2(C([H])([H])[H])C67C([H])([H])OC(=O)C([H])([H])[H]

$$$$
36:0:1
     RDKit          3D

103110  0  0  1  0  0  0  0  0999 V2000
    6.8949    0.0003    7.4724 C   0  0  0  0  0  0  0  0  0  0  0  0
    6.2464   -0.2810    6.1441 C   0  0  0  0  0  0  0  0  0  0  0  0
    6.5339    0.3672    5.1303 O   0  0  0  0  0  0  0  0  0  0  0  0
    5.3641   -1.3153    6.1959 O   0  0  0  0  0  0  0  0  0  0  0  0
    4.4831   -1.5903    5.1029 C   0  0  0  0  0  0  0  0  0  0  0  0
    2.9510   -1.4602    5.4025 C   0  0  1  0  0  0  0  0  0  0  0  0
    1.8259   -2.4872    5.2098 C   0  0  1  0  0  0  0  0  0  0  0  0
    1.7226   -3.5522    4.2525 O   0  0  0  0  0  0  0  0  0  0  0  0
    2.7568   -4.2030    3.5435 C   0  0  2  0  0  0  0  0  0  0  0  0
    1.9264   -5.3712    2.9489 C   0  0  0  0  0  0  0  0  0  0  0  0
    2.8893   -6.5168    2.6945 C   0  0  0  0  0  0  0  0  0  0  0  0
    3.8183   -6.5074    3.9179 C   0  0  0  0  0  0  0  0  0  0  0  0
    3.3420   -7.6525    4.8556 C   0  0  0  0  0  0  0  0  0  0  0  0
    5.2683   -6.8636    3.5104 C   0  0  0  0  0  0  0  0  0  0  0  0
    3.7103   -5.0273    4.5007 C   0  0  2  0  0  0  0  0  0  0  0  0
    3.2116   -5.0145    5.9847 C   0  0  0  0  0  0  0  0  0  0  0  0
    3.3689   -3.7434    6.8634 C   0  0  0  0  0  0  0  0  0  0  0  0
    2.5544   -2.4771    6.4974 C   0  0  1  0  0  0  0  0  0  0  0  0
    1.9686   -1.7909    7.7249 C   0  0  1  0  0  0  0  0  0  0  0  0
    2.9955   -1.2091    8.5153 O   0  0  0  0  0  0  0  0  0  0  0  0
    0.8698   -0.7576    7.3632 C   0  0  0  0  0  0  0  0  0  0  0  0
    1.0929    0.3012    6.2168 C   0  0  2  0  0  0  0  0  0  0  0  0
   -0.2670    1.0006    5.6866 C   0  0  1  0  0  0  0  0  0  0  0  0
   -1.4491    0.7236    6.6581 C   0  0  0  0  0  0  0  0  0  0  0  0
   -0.2323    2.5722    5.6238 C   0  0  1  0  0  0  0  0  0  0  0  0
    1.0463    3.3164    5.2178 C   0  0  0  0  0  0  0  0  0  0  0  0
    1.6416    3.0140    3.8321 C   0  0  1  0  0  0  0  0  0  0  0  0
    3.0370    3.6369    3.6643 C   0  0  0  0  0  0  0  0  0  0  0  0
    1.3958    1.5796    3.2543 C   0  0  2  0  0  0  0  0  0  0  0  0
   -0.1204    1.2423    3.1410 C   0  0  2  0  0  0  0  0  0  0  0  0
   -0.8597    2.4065    2.7526 O   0  0  0  0  0  0  0  0  0  0  0  0
   -1.5975    3.2253    3.6229 C   0  0  0  0  0  0  0  0  0  0  0  0
   -1.3546    4.6901    3.2452 C   0  0  0  0  0  0  0  0  0  0  0  0
   -3.0744    2.9417    3.3587 C   0  0  0  0  0  0  0  0  0  0  0  0
   -1.4163    3.0911    5.0137 O   0  0  0  0  0  0  0  0  0  0  0  0
   -0.7540    0.5047    4.3220 C   0  0  1  0  0  0  0  0  0  0  0  0
   -0.7955   -0.8959    4.1817 O   0  0  0  0  0  0  0  0  0  0  0  0
    2.3062    0.3652    3.6993 C   0  0  2  0  0  0  0  0  0  0  0  0
    3.5701    0.7946    3.2424 O   0  0  0  0  0  0  0  0  0  0  0  0
    2.0872   -0.8709    2.6959 C   0  0  0  0  0  0  0  0  0  0  0  0
    3.3040   -1.7688    2.2538 C   0  0  0  0  0  0  0  0  0  0  0  0
    3.3067   -3.3401    2.3063 C   0  0  1  0  0  0  0  0  0  0  0  0
    4.7075   -3.7728    1.8107 C   0  0  0  0  0  0  0  0  0  0  0  0
    2.4236    0.0427    5.2910 C   0  0  2  0  0  0  0  0  0  0  0  0
    3.5042    0.9681    5.9585 C   0  0  0  0  0  0  0  0  0  0  0  0
    7.4812   -0.8643    7.7977 H   0  0  0  0  0  0  0  0  0  0  0  0
    6.1188    0.2219    8.2018 H   0  0  0  0  0  0  0  0  0  0  0  0
    7.5406    0.8756    7.3770 H   0  0  0  0  0  0  0  0  0  0  0  0
    4.7799   -0.9469    4.2926 H   0  0  0  0  0  0  0  0  0  0  0  0
    4.6876   -2.5990    4.7716 H   0  0  0  0  0  0  0  0  0  0  0  0
    0.8001   -2.1848    5.3038 H   0  0  0  0  0  0  0  0  0  0  0  0
    1.1960   -5.7202    3.6817 H   0  0  0  0  0  0  0  0  0  0  0  0
    1.3503   -5.1191    2.0601 H   0  0  0  0  0  0  0  0  0  0  0  0
    2.3657   -7.4647    2.5609 H   0  0  0  0  0  0  0  0  0  0  0  0
    3.4294   -6.3612    1.7646 H   0  0  0  0  0  0  0  0  0  0  0  0
    3.9824   -7.7761    5.7281 H   0  0  0  0  0  0  0  0  0  0  0  0
    3.3612   -8.6166    4.3439 H   0  0  0  0  0  0  0  0  0  0  0  0
    2.3177   -7.5115    5.1982 H   0  0  0  0  0  0  0  0  0  0  0  0
    5.9205   -6.9306    4.3814 H   0  0  0  0  0  0  0  0  0  0  0  0
    5.7152   -6.1313    2.8446 H   0  0  0  0  0  0  0  0  0  0  0  0
    5.3178   -7.8264    2.9973 H   0  0  0  0  0  0  0  0  0  0  0  0
    4.7144   -4.6159    4.5003 H   0  0  0  0  0  0  0  0  0  0  0  0
    2.1824   -5.3714    6.0392 H   0  0  0  0  0  0  0  0  0  0  0  0
    3.7965   -5.7541    6.5262 H   0  0  0  0  0  0  0  0  0  0  0  0
    3.0536   -4.0503    7.8597 H   0  0  0  0  0  0  0  0  0  0  0  0
    4.4219   -3.4961    6.9785 H   0  0  0  0  0  0  0  0  0  0  0  0
    1.4972   -2.5467    8.3485 H   0  0  0  0  0  0  0  0  0  0  0  0
    2.6282   -0.8764    9.3061 H   0  0  0  0  0  0  0  0  0  0  0  0
    0.0038   -1.3630    7.1116 H   0  0  0  0  0  0  0  0  0  0  0  0
    0.5981   -0.2345    8.2815 H   0  0  0  0  0  0  0  0  0  0  0  0
    1.3670    1.1166    6.8784 H   0  0  0  0  0  0  0  0  0  0  0  0
   -2.3409    1.2801    6.3834 H   0  0  0  0  0  0  0  0  0  0  0  0
   -1.2192    0.9993    7.6839 H   0  0  0  0  0  0  0  0  0  0  0  0
   -1.7467   -0.3156    6.6155 H   0  0  0  0  0  0  0  0  0  0  0  0
   -0.3537    2.8954    6.6578 H   0  0  0  0  0  0  0  0  0  0  0  0
    0.8659    4.3857    5.2895 H   0  0  0  0  0  0  0  0  0  0  0  0
    1.7536    3.2030    6.0166 H   0  0  0  0  0  0  0  0  0  0  0  0
    1.0962    3.6462    3.1412 H   0  0  0  0  0  0  0  0  0  0  0  0
    3.7939    3.1877    4.3026 H   0  0  0  0  0  0  0  0  0  0  0  0
    3.0262    4.7049    3.8828 H   0  0  0  0  0  0  0  0  0  0  0  0
    3.3829    3.5348    2.6361 H   0  0  0  0  0  0  0  0  0  0  0  0
    1.6536    1.7444    2.2041 H   0  0  0  0  0  0  0  0  0  0  0  0
   -0.2364    0.6041    2.2670 H   0  0  0  0  0  0  0  0  0  0  0  0
   -0.3879    5.0641    3.5690 H   0  0  0  0  0  0  0  0  0  0  0  0
   -2.1263    5.3071    3.6641 H   0  0  0  0  0  0  0  0  0  0  0  0
   -1.4285    4.8083    2.1640 H   0  0  0  0  0  0  0  0  0  0  0  0
   -3.3251    1.9883    3.8115 H   0  0  0  0  0  0  0  0  0  0  0  0
   -3.3184    3.0224    2.2903 H   0  0  0  0  0  0  0  0  0  0  0  0
   -3.7077    3.6021    3.9113 H   0  0  0  0  0  0  0  0  0  0  0  0
   -1.8132    0.6879    4.2456 H   0  0  0  0  0  0  0  0  0  0  0  0
    0.0732   -1.2012    4.0173 H   0  0  0  0  0  0  0  0  0  0  0  0
    3.4933    1.2395    2.4219 H   0  0  0  0  0  0  0  0  0  0  0  0
    1.2488   -1.4922    2.9764 H   0  0  0  0  0  0  0  0  0  0  0  0
    1.7304   -0.4445    1.7540 H   0  0  0  0  0  0  0  0  0  0  0  0
    3.3875   -1.5469    1.1874 H   0  0  0  0  0  0  0  0  0  0  0  0
    4.2774   -1.3992    2.5408 H   0  0  0  0  0  0  0  0  0  0  0  0
    2.6461   -3.5705    1.4699 H   0  0  0  0  0  0  0  0  0  0  0  0
    5.4664   -3.6821    2.5888 H   0  0  0  0  0  0  0  0  0  0  0  0
    5.0457   -3.1542    0.9786 H   0  0  0  0  0  0  0  0  0  0  0  0
    4.7372   -4.7850    1.4203 H   0  0  0  0  0  0  0  0  0  0  0  0
    3.2123    1.9794    6.0903 H   0  0  0  0  0  0  0  0  0  0  0  0
    4.4099    1.0169    5.3930 H   0  0  0  0  0  0  0  0  0  0  0  0
    3.6915    0.6355    6.9822 H   0  0  0  0  0  0  0  0  0  0  0  0
  1  2  1  0
  1 46  1  0
  1 47  1  0
  1 48  1  0
  2  3  2  0
  2  4  1  0
  4  5  1  0
  6  5  1  6
  5 49  1  0
  5 50  1  0
  6 18  1  0
  6 44  1  0
  6  7  1  0
  7 18  1  0
  7  8  1  0
  7 51  1  1
  8  9  1  0
  9 15  1  0
  9 42  1  0
  9 10  1  6
 10 11  1  0
 10 52  1  0
 10 53  1  0
 11 12  1  0
 11 54  1  0
 11 55  1  0
 12 13  1  0
 12 14  1  0
 12 15  1  0
 13 56  1  0
 13 57  1  0
 13 58  1  0
 14 59  1  0
 14 60  1  0
 14 61  1  0
 15 16  1  0
 15 62  1  1
 16 17  1  0
 16 63  1  0
 16 64  1  0
 18 17  1  1
 17 65  1  0
 17 66  1  0
 18 19  1  0
 19 20  1  0
 19 21  1  0
 19 67  1  1
 20 68  1  0
 21 22  1  0
 21 69  1  0
 21 70  1  0
 22 44  1  0
 22 23  1  0
 22 71  1  1
 23 36  1  0
 23 24  1  1
 23 25  1  0
 24 72  1  0
 24 73  1  0
 24 74  1  0
 25 35  1  0
 25 26  1  0
 25 75  1  1
 26 27  1  0
 26 76  1  0
 26 77  1  0
 27 28  1  0
 27 29  1  0
 27 78  1  6
 28 79  1  0
 28 80  1  0
 28 81  1  0
 29 30  1  0
 29 38  1  0
 29 82  1  6
 30 31  1  0
 30 36  1  0
 30 83  1  6
 31 32  1  0
 32 33  1  0
 32 34  1  0
 32 35  1  0
 33 84  1  0
 33 85  1  0
 33 86  1  0
 34 87  1  0
 34 88  1  0
 34 89  1  0
 36 37  1  0
 36 90  1  1
 37 91  1  0
 38 39  1  6
 38 40  1  0
 38 44  1  0
 39 92  1  0
 40 41  1  0
 40 93  1  0
 40 94  1  0
 41 42  1  0
 41 95  1  0
 41 96  1  0
 42 43  1  0
 42 97  1  6
 43 98  1  0
 43 99  1  0
 43100  1  0
 44 45  1  1
 45101  1  0
 45102  1  0
 45103  1  0
M  END
>  <i_m_ct_stereo_status>  (125) 
1

>  <s_m_source_file>  (125) 
/var/tmp/pbs.5076255.sched01/tmp5eg4wc32/41mqp692j8.sdf

>  <i_m_source_file_index>  (125) 
13

>  <i_lp_mmshare_version>  (125) 
48012

>  <i_f3d_flags>  (125) 
0

>  <s_epik_input>  (125) 
W0NIMl0xW0NIMl1DKFtDSDNdKShbQ0gzXSlbQ0BASF0oW0NAQF0xMjMpW0NIMl1bQ0gyXVtDQEBdNDVbQ0BdKFtDQEhdNE8yKShbQ0gyXU9DKD1PKVtDSDNdKVtDQF02KFtDSDNdKVtDQEhdKFtDSDJdW0NAQEhdNVtPSF0pW0NAQF03KFtDSDNdKVtDQEhdOFtDSDJdW0NAQEhdKFtDSDNdKVtDQEhdKFtDQEBIXShbQ0BIXTdbT0hdKU9DKE84KShbQ0gzXSlbQ0gzXSlbQ0BdNihbT0hdKVtDSDJdW0NIMl1bQ0BIXTNbQ0gzXQ==

>  <s_epik_cmdline>  (125) 
J2VwaWtfcHl0aG9uJywgJy1waHQnLCAnMi4wJywgJy1waCcsICc3LjAnLCAnLXRuJywgJzgnLCAnLW1hJywgJzIwMCcsICctaW1hZScsICc8aW5maWxlLm1hZT4nLCAnLW9tYWUnLCAnPG91dGZpbGUubWFlPic=

>  <r_lp_tautomer_probability>  (125) 
1

>  <r_epik_Ionization_Penalty>  (125) 
8.04879e-07

>  <r_epik_Ionization_Penalty_Charging>  (125) 
0

>  <r_epik_Ionization_Penalty_Neutral>  (125) 
8.04879e-07

>  <r_epik_State_Penalty>  (125) 
-0

>  <r_epik_Charging_Adjusted_Penalty>  (125) 
0

>  <i_epik_Tot_Q>  (125) 
0

>  <i_epik_Tot_abs_Q>  (125) 
0

>  <s_epik_Chemistry_Notes>  (125) 
This compound has an ester and may undergo hydrolysis at high or low pH.

>  <s_lp_Force_Field>  (125) 
OPLS3e

>  <r_lp_Energy>  (125) 
197.098

>  <b_lp_Chiralities_Consistent>  (125) 
1

>  <s_lp_Variant>  (125) 
36:0-1

>  <s_i_glide_gridfile>  (125) 
pfpi4k_grid

>  <i_i_glide_lignum>  (125) 
13

>  <i_i_glide_rotatable_bonds>  (125) 
6

>  <r_i_docking_score>  (125) 
-1.20001

>  <r_i_glide_ligand_efficiency>  (125) 
-0.0266668

>  <r_i_glide_ligand_efficiency_sa>  (125) 
-0.0948509

>  <r_i_glide_ligand_efficiency_ln>  (125) 
-0.249655

>  <r_i_glide_gscore>  (125) 
-1.20001

>  <r_i_glide_lipo>  (125) 
-0.0887139

>  <r_i_glide_hbond>  (125) 
0

>  <r_i_glide_metal>  (125) 
-0

>  <r_i_glide_rewards>  (125) 
-0.0842527

>  <r_i_glide_evdw>  (125) 
-24.9854

>  <r_i_glide_ecoul>  (125) 
1.15669

>  <r_i_glide_erotb>  (125) 
0.106277

>  <r_i_glide_esite>  (125) 
-0.0575493

>  <r_i_glide_emodel>  (125) 
-22.1043

>  <r_i_glide_energy>  (125) 
-23.8287

>  <r_i_glide_einternal>  (125) 
1.64416

>  <r_i_glide_intrahb_reward>  (125) 
-0

>  <i_i_glide_confnum>  (125) 
2

>  <i_i_glide_posenum>  (125) 
10

>  <r_i_glide_eff_state_penalty>  (125) 
0

>  <ligand_id>  (125) 
36

>  <original_smiles>  (125) 
CC(=O)OCC12C3OC45CCC(C)(C)C4CCC31C(O)CC1C3(C)C4CC(C)C(C(OC(C)(C)O4)C3O)C(O)(CCC5C)C12C

>  <smiles>  (125) 
[H]OC1([H])C2([H])OC(C([H])([H])[H])(C([H])([H])[H])OC3([H])C([H])([H])C([H])(C([H])([H])[H])C2([H])C2(O[H])C([H])([H])C([H])([H])C([H])(C([H])([H])[H])C45OC6([H])C7(C([H])([H])C([H])([H])C4([H])C(C([H])([H])[H])(C([H])([H])[H])C([H])([H])C5([H])[H])C([H])(O[H])C([H])([H])C([H])(C31C([H])([H])[H])C2(C([H])([H])[H])C67C([H])([H])OC(=O)C([H])([H])[H]

$$$$
36:0:2
     RDKit          3D

103110  0  0  1  0  0  0  0  0999 V2000
    7.0343    0.6709    6.6033 C   0  0  0  0  0  0  0  0  0  0  0  0
    6.2369    0.2759    5.3693 C   0  0  0  0  0  0  0  0  0  0  0  0
    6.6577    0.4987    4.2362 O   0  0  0  0  0  0  0  0  0  0  0  0
    5.0644   -0.3016    5.6398 O   0  0  0  0  0  0  0  0  0  0  0  0
    4.2010   -0.6298    4.5467 C   0  0  0  0  0  0  0  0  0  0  0  0
    2.7038   -0.6301    4.9177 C   0  0  1  0  0  0  0  0  0  0  0  0
    1.6620   -1.7536    4.8015 C   0  0  1  0  0  0  0  0  0  0  0  0
    1.6457   -2.8528    3.8977 O   0  0  0  0  0  0  0  0  0  0  0  0
    2.7075   -3.4110    3.1534 C   0  0  2  0  0  0  0  0  0  0  0  0
    1.9881   -4.6790    2.6401 C   0  0  0  0  0  0  0  0  0  0  0  0
    3.0309   -5.7292    2.3755 C   0  0  0  0  0  0  0  0  0  0  0  0
    3.9989   -5.5784    3.5437 C   0  0  0  0  0  0  0  0  0  0  0  0
    3.6638   -6.7316    4.5226 C   0  0  0  0  0  0  0  0  0  0  0  0
    5.4407   -5.8057    3.0602 C   0  0  0  0  0  0  0  0  0  0  0  0
    3.7738   -4.0961    4.0832 C   0  0  2  0  0  0  0  0  0  0  0  0
    3.3277   -4.0783    5.5829 C   0  0  0  0  0  0  0  0  0  0  0  0
    3.4021   -2.7787    6.4145 C   0  0  0  0  0  0  0  0  0  0  0  0
    2.4537   -1.6244    6.0591 C   0  0  1  0  0  0  0  0  0  0  0  0
    1.8583   -0.9658    7.2874 C   0  0  1  0  0  0  0  0  0  0  0  0
    2.8393   -0.2500    8.0109 O   0  0  0  0  0  0  0  0  0  0  0  0
    0.6723   -0.0592    6.9470 C   0  0  0  0  0  0  0  0  0  0  0  0
    0.7780    0.9936    5.7857 C   0  0  2  0  0  0  0  0  0  0  0  0
   -0.6754    1.5475    5.3550 C   0  0  1  0  0  0  0  0  0  0  0  0
   -1.7826    1.1889    6.3831 C   0  0  0  0  0  0  0  0  0  0  0  0
   -0.8268    3.1116    5.2464 C   0  0  1  0  0  0  0  0  0  0  0  0
    0.3834    3.9436    4.7919 C   0  0  0  0  0  0  0  0  0  0  0  0
    0.9624    3.6272    3.4202 C   0  0  1  0  0  0  0  0  0  0  0  0
    2.2488    4.4019    3.0650 C   0  0  0  0  0  0  0  0  0  0  0  0
    0.7928    2.1704    2.8367 C   0  0  2  0  0  0  0  0  0  0  0  0
   -0.6777    1.6709    2.8217 C   0  0  2  0  0  0  0  0  0  0  0  0
   -1.5034    2.7466    2.4145 O   0  0  0  0  0  0  0  0  0  0  0  0
   -2.3209    3.5083    3.2502 C   0  0  0  0  0  0  0  0  0  0  0  0
   -2.2531    4.9367    2.7702 C   0  0  0  0  0  0  0  0  0  0  0  0
   -3.7673    3.0952    3.0011 C   0  0  0  0  0  0  0  0  0  0  0  0
   -2.0872    3.4879    4.6362 O   0  0  0  0  0  0  0  0  0  0  0  0
   -1.1943    0.9408    4.0652 C   0  0  1  0  0  0  0  0  0  0  0  0
   -1.1154   -0.4575    4.0322 O   0  0  0  0  0  0  0  0  0  0  0  0
    1.8330    1.0591    3.2119 C   0  0  2  0  0  0  0  0  0  0  0  0
    3.0097    1.6199    2.6922 O   0  0  0  0  0  0  0  0  0  0  0  0
    1.6502   -0.2016    2.2452 C   0  0  0  0  0  0  0  0  0  0  0  0
    2.9339   -0.9743    1.7611 C   0  0  0  0  0  0  0  0  0  0  0  0
    3.0857   -2.5352    1.8612 C   0  0  1  0  0  0  0  0  0  0  0  0
    4.4864   -2.8431    1.3017 C   0  0  0  0  0  0  0  0  0  0  0  0
    2.0569    0.8023    4.7907 C   0  0  2  0  0  0  0  0  0  0  0  0
    3.0971    1.8379    5.3637 C   0  0  0  0  0  0  0  0  0  0  0  0
    7.1236   -0.1951    7.2623 H   0  0  0  0  0  0  0  0  0  0  0  0
    6.5212    1.4854    7.1205 H   0  0  0  0  0  0  0  0  0  0  0  0
    8.0347    1.0116    6.3164 H   0  0  0  0  0  0  0  0  0  0  0  0
    4.3669    0.1132    3.7658 H   0  0  0  0  0  0  0  0  0  0  0  0
    4.4757   -1.5919    4.1504 H   0  0  0  0  0  0  0  0  0  0  0  0
    0.6248   -1.5727    4.9708 H   0  0  0  0  0  0  0  0  0  0  0  0
    1.3067   -5.0625    3.4090 H   0  0  0  0  0  0  0  0  0  0  0  0
    1.4427   -4.5365    1.7084 H   0  0  0  0  0  0  0  0  0  0  0  0
    2.5632   -6.7113    2.3053 H   0  0  0  0  0  0  0  0  0  0  0  0
    3.4942   -5.5608    1.4048 H   0  0  0  0  0  0  0  0  0  0  0  0
    4.3576   -6.7622    5.3592 H   0  0  0  0  0  0  0  0  0  0  0  0
    3.7548   -7.6950    4.0177 H   0  0  0  0  0  0  0  0  0  0  0  0
    2.6429   -6.6797    4.9046 H   0  0  0  0  0  0  0  0  0  0  0  0
    6.1275   -5.7857    3.9040 H   0  0  0  0  0  0  0  0  0  0  0  0
    5.7701   -5.0561    2.3451 H   0  0  0  0  0  0  0  0  0  0  0  0
    5.5342   -6.7792    2.5760 H   0  0  0  0  0  0  0  0  0  0  0  0
    4.7204   -3.5724    4.0109 H   0  0  0  0  0  0  0  0  0  0  0  0
    2.3324   -4.5223    5.6867 H   0  0  0  0  0  0  0  0  0  0  0  0
    3.9994   -4.7468    6.1073 H   0  0  0  0  0  0  0  0  0  0  0  0
    3.1795   -3.0728    7.4389 H   0  0  0  0  0  0  0  0  0  0  0  0
    4.4244   -2.4340    6.4744 H   0  0  0  0  0  0  0  0  0  0  0  0
    1.5091   -1.7583    7.9455 H   0  0  0  0  0  0  0  0  0  0  0  0
    3.2487    0.3787    7.4353 H   0  0  0  0  0  0  0  0  0  0  0  0
   -0.1528   -0.7477    6.7483 H   0  0  0  0  0  0  0  0  0  0  0  0
    0.4178    0.4655    7.8618 H   0  0  0  0  0  0  0  0  0  0  0  0
    1.0598    1.8519    6.3888 H   0  0  0  0  0  0  0  0  0  0  0  0
   -2.7102    1.6962    6.1221 H   0  0  0  0  0  0  0  0  0  0  0  0
   -1.5269    1.5176    7.3879 H   0  0  0  0  0  0  0  0  0  0  0  0
   -2.0290    0.1288    6.3675 H   0  0  0  0  0  0  0  0  0  0  0  0
   -0.9413    3.4528    6.2772 H   0  0  0  0  0  0  0  0  0  0  0  0
    0.0602    4.9885    4.7633 H   0  0  0  0  0  0  0  0  0  0  0  0
    1.1366    3.9373    5.5625 H   0  0  0  0  0  0  0  0  0  0  0  0
    0.2462    4.2370    2.8983 H   0  0  0  0  0  0  0  0  0  0  0  0
    3.1146    4.0862    3.6467 H   0  0  0  0  0  0  0  0  0  0  0  0
    2.0975    5.4720    3.2300 H   0  0  0  0  0  0  0  0  0  0  0  0
    2.4896    4.2918    2.0042 H   0  0  0  0  0  0  0  0  0  0  0  0
    0.9506    2.3605    1.7698 H   0  0  0  0  0  0  0  0  0  0  0  0
   -0.8079    1.0182    1.9644 H   0  0  0  0  0  0  0  0  0  0  0  0
   -1.3902    5.4854    3.1442 H   0  0  0  0  0  0  0  0  0  0  0  0
   -3.2029    5.3558    3.0859 H   0  0  0  0  0  0  0  0  0  0  0  0
   -2.2635    5.0235    1.6806 H   0  0  0  0  0  0  0  0  0  0  0  0
   -3.9295    2.1499    3.4431 H   0  0  0  0  0  0  0  0  0  0  0  0
   -3.9823    3.1013    1.9359 H   0  0  0  0  0  0  0  0  0  0  0  0
   -4.4747    3.7428    3.4475 H   0  0  0  0  0  0  0  0  0  0  0  0
   -2.2617    1.0597    4.0355 H   0  0  0  0  0  0  0  0  0  0  0  0
   -0.2571   -0.6355    3.6812 H   0  0  0  0  0  0  0  0  0  0  0  0
    2.8384    1.9577    1.8309 H   0  0  0  0  0  0  0  0  0  0  0  0
    0.8746   -0.8820    2.5791 H   0  0  0  0  0  0  0  0  0  0  0  0
    1.2190    0.1880    1.3147 H   0  0  0  0  0  0  0  0  0  0  0  0
    2.9012   -0.7958    0.6804 H   0  0  0  0  0  0  0  0  0  0  0  0
    3.8869   -0.4934    1.9923 H   0  0  0  0  0  0  0  0  0  0  0  0
    2.3964   -2.8425    1.0744 H   0  0  0  0  0  0  0  0  0  0  0  0
    5.2671   -2.6536    2.0335 H   0  0  0  0  0  0  0  0  0  0  0  0
    4.7104   -2.2182    0.4422 H   0  0  0  0  0  0  0  0  0  0  0  0
    4.5908   -3.8550    0.9386 H   0  0  0  0  0  0  0  0  0  0  0  0
    2.7466    2.8536    5.3734 H   0  0  0  0  0  0  0  0  0  0  0  0
    4.0376    1.9000    4.8129 H   0  0  0  0  0  0  0  0  0  0  0  0
    3.3364    1.5976    6.3951 H   0  0  0  0  0  0  0  0  0  0  0  0
  1  2  1  0
  1 46  1  0
  1 47  1  0
  1 48  1  0
  2  3  2  0
  2  4  1  0
  4  5  1  0
  6  5  1  6
  5 49  1  0
  5 50  1  0
  6 18  1  0
  6 44  1  0
  6  7  1  0
  7 18  1  0
  7  8  1  0
  7 51  1  1
  8  9  1  0
  9 15  1  0
  9 42  1  0
  9 10  1  6
 10 11  1  0
 10 52  1  0
 10 53  1  0
 11 12  1  0
 11 54  1  0
 11 55  1  0
 12 13  1  0
 12 14  1  0
 12 15  1  0
 13 56  1  0
 13 57  1  0
 13 58  1  0
 14 59  1  0
 14 60  1  0
 14 61  1  0
 15 16  1  0
 15 62  1  1
 16 17  1  0
 16 63  1  0
 16 64  1  0
 18 17  1  1
 17 65  1  0
 17 66  1  0
 18 19  1  0
 19 20  1  0
 19 21  1  0
 19 67  1  1
 20 68  1  0
 21 22  1  0
 21 69  1  0
 21 70  1  0
 22 44  1  0
 22 23  1  0
 22 71  1  1
 23 36  1  0
 23 24  1  1
 23 25  1  0
 24 72  1  0
 24 73  1  0
 24 74  1  0
 25 35  1  0
 25 26  1  0
 25 75  1  1
 26 27  1  0
 26 76  1  0
 26 77  1  0
 27 28  1  0
 27 29  1  0
 27 78  1  6
 28 79  1  0
 28 80  1  0
 28 81  1  0
 29 30  1  0
 29 38  1  0
 29 82  1  6
 30 31  1  0
 30 36  1  0
 30 83  1  6
 31 32  1  0
 32 33  1  0
 32 34  1  0
 32 35  1  0
 33 84  1  0
 33 85  1  0
 33 86  1  0
 34 87  1  0
 34 88  1  0
 34 89  1  0
 36 37  1  0
 36 90  1  1
 37 91  1  0
 38 39  1  6
 38 40  1  0
 38 44  1  0
 39 92  1  0
 40 41  1  0
 40 93  1  0
 40 94  1  0
 41 42  1  0
 41 95  1  0
 41 96  1  0
 42 43  1  0
 42 97  1  6
 43 98  1  0
 43 99  1  0
 43100  1  0
 44 45  1  1
 45101  1  0
 45102  1  0
 45103  1  0
M  END
>  <i_m_ct_stereo_status>  (126) 
1

>  <s_m_source_file>  (126) 
/var/tmp/pbs.5076255.sched01/tmp5eg4wc32/41mqp692j8.sdf

>  <i_m_source_file_index>  (126) 
13

>  <i_lp_mmshare_version>  (126) 
48012

>  <i_f3d_flags>  (126) 
0

>  <s_epik_input>  (126) 
W0NIMl0xW0NIMl1DKFtDSDNdKShbQ0gzXSlbQ0BASF0oW0NAQF0xMjMpW0NIMl1bQ0gyXVtDQEBdNDVbQ0BdKFtDQEhdNE8yKShbQ0gyXU9DKD1PKVtDSDNdKVtDQF02KFtDSDNdKVtDQEhdKFtDSDJdW0NAQEhdNVtPSF0pW0NAQF03KFtDSDNdKVtDQEhdOFtDSDJdW0NAQEhdKFtDSDNdKVtDQEhdKFtDQEBIXShbQ0BIXTdbT0hdKU9DKE84KShbQ0gzXSlbQ0gzXSlbQ0BdNihbT0hdKVtDSDJdW0NIMl1bQ0BIXTNbQ0gzXQ==

>  <s_epik_cmdline>  (126) 
J2VwaWtfcHl0aG9uJywgJy1waHQnLCAnMi4wJywgJy1waCcsICc3LjAnLCAnLXRuJywgJzgnLCAnLW1hJywgJzIwMCcsICctaW1hZScsICc8aW5maWxlLm1hZT4nLCAnLW9tYWUnLCAnPG91dGZpbGUubWFlPic=

>  <r_lp_tautomer_probability>  (126) 
1

>  <r_epik_Ionization_Penalty>  (126) 
8.04879e-07

>  <r_epik_Ionization_Penalty_Charging>  (126) 
0

>  <r_epik_Ionization_Penalty_Neutral>  (126) 
8.04879e-07

>  <r_epik_State_Penalty>  (126) 
-0

>  <r_epik_Charging_Adjusted_Penalty>  (126) 
0

>  <i_epik_Tot_Q>  (126) 
0

>  <i_epik_Tot_abs_Q>  (126) 
0

>  <s_epik_Chemistry_Notes>  (126) 
This compound has an ester and may undergo hydrolysis at high or low pH.

>  <s_lp_Force_Field>  (126) 
OPLS3e

>  <r_lp_Energy>  (126) 
197.098

>  <b_lp_Chiralities_Consistent>  (126) 
1

>  <s_lp_Variant>  (126) 
36:0-1

>  <s_i_glide_gridfile>  (126) 
pfpi4k_grid

>  <i_i_glide_lignum>  (126) 
13

>  <i_i_glide_rotatable_bonds>  (126) 
6

>  <r_i_docking_score>  (126) 
-1.15719

>  <r_i_glide_ligand_efficiency>  (126) 
-0.0257152

>  <r_i_glide_ligand_efficiency_sa>  (126) 
-0.0914664

>  <r_i_glide_ligand_efficiency_ln>  (126) 
-0.240746

>  <r_i_glide_gscore>  (126) 
-1.15719

>  <r_i_glide_lipo>  (126) 
-0.153097

>  <r_i_glide_hbond>  (126) 
0

>  <r_i_glide_metal>  (126) 
-0

>  <r_i_glide_rewards>  (126) 
-0.167694

>  <r_i_glide_evdw>  (126) 
-20.5522

>  <r_i_glide_ecoul>  (126) 
0.993012

>  <r_i_glide_erotb>  (126) 
0.106277

>  <r_i_glide_esite>  (126) 
-0.0640136

>  <r_i_glide_emodel>  (126) 
-17.7687

>  <r_i_glide_energy>  (126) 
-19.5592

>  <r_i_glide_einternal>  (126) 
1.35326

>  <r_i_glide_intrahb_reward>  (126) 
-0

>  <i_i_glide_confnum>  (126) 
3

>  <i_i_glide_posenum>  (126) 
35

>  <r_i_glide_eff_state_penalty>  (126) 
0

>  <ligand_id>  (126) 
36

>  <original_smiles>  (126) 
CC(=O)OCC12C3OC45CCC(C)(C)C4CCC31C(O)CC1C3(C)C4CC(C)C(C(OC(C)(C)O4)C3O)C(O)(CCC5C)C12C

>  <smiles>  (126) 
[H]OC1([H])C2([H])OC(C([H])([H])[H])(C([H])([H])[H])OC3([H])C([H])([H])C([H])(C([H])([H])[H])C2([H])C2(O[H])C([H])([H])C([H])([H])C([H])(C([H])([H])[H])C45OC6([H])C7(C([H])([H])C([H])([H])C4([H])C(C([H])([H])[H])(C([H])([H])[H])C([H])([H])C5([H])[H])C([H])(O[H])C([H])([H])C([H])(C31C([H])([H])[H])C2(C([H])([H])[H])C67C([H])([H])OC(=O)C([H])([H])[H]

$$$$
38:0:0
     RDKit          3D

 54 59  0  0  1  0  0  0  0  0999 V2000
    2.5457   -8.7070    1.5086 C   0  0  0  0  0  0  0  0  0  0  0  0
    2.6998   -9.1174    2.9529 C   0  0  0  0  0  0  0  0  0  0  0  0
    3.7760   -8.8368    3.7307 C   0  0  0  0  0  0  0  0  0  0  0  0
    5.1584   -8.1862    3.6286 C   0  0  1  0  0  0  0  0  0  0  0  0
    5.4503   -9.2062    4.7430 C   0  0  1  0  0  0  0  0  0  0  0  0
    6.6043   -8.7711    5.6214 C   0  0  1  0  0  0  0  0  0  0  0  0
    6.8622   -9.7993    6.5517 O   0  0  0  0  0  0  0  0  0  0  0  0
    7.8209   -8.5957    4.7016 C   0  0  1  0  0  0  0  0  0  0  0  0
    7.6010   -8.3105    3.1200 C   0  0  1  0  0  0  0  0  0  0  0  0
    6.1874   -8.2987    2.4712 C   0  0  0  0  0  0  0  0  0  0  0  0
    6.0862   -9.6090    1.6445 C   0  0  0  0  0  0  0  0  0  0  0  0
    6.1049   -7.0995    1.5091 C   0  0  0  0  0  0  0  0  0  0  0  0
    8.2095   -7.3407    4.0344 C   0  0  2  0  0  0  0  0  0  0  0  0
    8.9600   -6.0607    4.1634 C   0  0  0  0  0  0  0  0  0  0  0  0
    7.5308   -6.1202    4.3609 O   0  0  0  0  0  0  0  0  0  0  0  0
    3.9844   -9.2627    5.1781 C   0  0  1  0  0  0  0  0  0  0  0  0
    3.5719   -8.1922    6.1977 C   0  0  0  0  0  0  0  0  0  0  0  0
    3.2537  -10.6028    5.3725 C   0  0  1  0  0  0  0  0  0  0  0  0
    3.4535  -11.0519    6.6890 O   0  0  0  0  0  0  0  0  0  0  0  0
    1.7563  -10.4529    4.9953 C   0  0  0  0  0  0  0  0  0  0  0  0
    1.5238   -9.9138    3.5374 C   0  0  1  0  0  0  0  0  0  0  0  0
    0.1822   -9.1972    3.3945 C   0  0  0  0  0  0  0  0  0  0  0  0
   -0.3130   -8.1310    4.1967 C   0  0  0  0  0  0  0  0  0  0  0  0
   -1.5625   -7.8252    3.7216 C   0  0  0  0  0  0  0  0  0  0  0  0
   -1.8824   -8.6228    2.6777 O   0  0  0  0  0  0  0  0  0  0  0  0
   -0.8223   -9.4501    2.4914 C   0  0  0  0  0  0  0  0  0  0  0  0
    1.6535   -8.1005    1.3697 H   0  0  0  0  0  0  0  0  0  0  0  0
    2.4215   -9.5895    0.8899 H   0  0  0  0  0  0  0  0  0  0  0  0
    3.3924   -8.1489    1.1345 H   0  0  0  0  0  0  0  0  0  0  0  0
    5.1775   -7.1806    4.0616 H   0  0  0  0  0  0  0  0  0  0  0  0
    5.6770  -10.1717    4.2909 H   0  0  0  0  0  0  0  0  0  0  0  0
    6.3919   -7.8385    6.1590 H   0  0  0  0  0  0  0  0  0  0  0  0
    6.0511  -10.0052    6.9937 H   0  0  0  0  0  0  0  0  0  0  0  0
    8.7066   -9.1454    5.0008 H   0  0  0  0  0  0  0  0  0  0  0  0
    8.3675   -8.6496    2.4349 H   0  0  0  0  0  0  0  0  0  0  0  0
    6.8102   -9.6274    0.8293 H   0  0  0  0  0  0  0  0  0  0  0  0
    5.1106   -9.7587    1.2010 H   0  0  0  0  0  0  0  0  0  0  0  0
    6.2964  -10.4886    2.2448 H   0  0  0  0  0  0  0  0  0  0  0  0
    6.9598   -7.1061    0.8338 H   0  0  0  0  0  0  0  0  0  0  0  0
    6.1603   -6.1622    2.0594 H   0  0  0  0  0  0  0  0  0  0  0  0
    5.1980   -7.0872    0.9078 H   0  0  0  0  0  0  0  0  0  0  0  0
    9.5954   -5.9880    5.0473 H   0  0  0  0  0  0  0  0  0  0  0  0
    9.3475   -5.6628    3.2245 H   0  0  0  0  0  0  0  0  0  0  0  0
    3.9624   -8.4471    7.1806 H   0  0  0  0  0  0  0  0  0  0  0  0
    2.4906   -8.0741    6.2863 H   0  0  0  0  0  0  0  0  0  0  0  0
    4.0086   -7.2284    5.9433 H   0  0  0  0  0  0  0  0  0  0  0  0
    3.6549  -11.3604    4.7042 H   0  0  0  0  0  0  0  0  0  0  0  0
    2.7521  -11.6370    6.9472 H   0  0  0  0  0  0  0  0  0  0  0  0
    1.2140  -11.3935    5.1039 H   0  0  0  0  0  0  0  0  0  0  0  0
    1.2686   -9.7808    5.7034 H   0  0  0  0  0  0  0  0  0  0  0  0
    1.4491  -10.7854    2.8860 H   0  0  0  0  0  0  0  0  0  0  0  0
    0.1534   -7.6516    5.0414 H   0  0  0  0  0  0  0  0  0  0  0  0
   -2.3129   -7.1160    4.0188 H   0  0  0  0  0  0  0  0  0  0  0  0
   -0.9697  -10.1593    1.6905 H   0  0  0  0  0  0  0  0  0  0  0  0
  1  2  1  0
  1 27  1  0
  1 28  1  0
  1 29  1  0
  2 21  1  0
  2  3  2  0
  3 16  1  0
  3  4  1  0
  4 10  1  0
  4  5  1  0
  4 30  1  1
  5  6  1  0
  5 16  1  0
  5 31  1  6
  6  7  1  0
  6  8  1  0
  6 32  1  1
  7 33  1  0
  8 13  1  0
  8  9  1  0
  8 34  1  6
  9 10  1  0
  9 13  1  0
  9 35  1  6
 10 11  1  0
 10 12  1  0
 11 36  1  0
 11 37  1  0
 11 38  1  0
 12 39  1  0
 12 40  1  0
 12 41  1  0
 13 15  1  1
 13 14  1  0
 14 15  1  0
 14 42  1  0
 14 43  1  0
 16 17  1  1
 16 18  1  0
 17 44  1  0
 17 45  1  0
 17 46  1  0
 18 19  1  0
 18 20  1  0
 18 47  1  6
 19 48  1  0
 20 21  1  0
 20 49  1  0
 20 50  1  0
 21 22  1  0
 21 51  1  6
 22 26  2  0
 22 23  1  0
 23 24  2  0
 23 52  1  0
 24 25  1  0
 24 53  1  0
 25 26  1  0
 26 54  1  0
M  END
>  <i_m_ct_stereo_status>  (127) 
1

>  <s_m_source_file>  (127) 
/var/tmp/pbs.5076255.sched01/tmp5eg4wc32/41mqp692j8.sdf

>  <i_m_source_file_index>  (127) 
15

>  <i_lp_mmshare_version>  (127) 
48012

>  <i_f3d_flags>  (127) 
0

>  <s_epik_input>  (127) 
W2NIXTFvW2NIXVtjSF1jMVtDQEBIXShDPTJbQ0gzXSlbQ0gyXVtDQEhdKFtPSF0pW0NAQF0oW0NIM10pKFtDQEBIXTNbQ0BIXTRbT0hdKUMyW0NAQEhdM0MoW0NIM10pKFtDSDNdKVtDQEBIXTVbQ0BIXTRbQ0BAXTU2W0NIMl1PNg==

>  <s_epik_cmdline>  (127) 
J2VwaWtfcHl0aG9uJywgJy1waHQnLCAnMi4wJywgJy1waCcsICc3LjAnLCAnLXRuJywgJzgnLCAnLW1hJywgJzIwMCcsICctaW1hZScsICc8aW5maWxlLm1hZT4nLCAnLW9tYWUnLCAnPG91dGZpbGUubWFlPic=

>  <r_lp_tautomer_probability>  (127) 
1

>  <r_epik_Ionization_Penalty>  (127) 
6.38182e-07

>  <r_epik_Ionization_Penalty_Charging>  (127) 
0

>  <r_epik_Ionization_Penalty_Neutral>  (127) 
6.38182e-07

>  <r_epik_State_Penalty>  (127) 
-0

>  <r_epik_Charging_Adjusted_Penalty>  (127) 
0

>  <i_epik_Tot_Q>  (127) 
0

>  <i_epik_Tot_abs_Q>  (127) 
0

>  <s_lp_Force_Field>  (127) 
OPLS3e

>  <r_lp_Energy>  (127) 
40.3934

>  <b_lp_Chiralities_Consistent>  (127) 
1

>  <s_lp_Variant>  (127) 
38:0-1

>  <s_i_glide_gridfile>  (127) 
pfpi4k_grid

>  <i_i_glide_lignum>  (127) 
15

>  <i_i_glide_rotatable_bonds>  (127) 
3

>  <r_i_docking_score>  (127) 
-3.065

>  <r_i_glide_ligand_efficiency>  (127) 
-0.117885

>  <r_i_glide_ligand_efficiency_sa>  (127) 
-0.349232

>  <r_i_glide_ligand_efficiency_ln>  (127) 
-0.719805

>  <r_i_glide_gscore>  (127) 
-3.065

>  <r_i_glide_lipo>  (127) 
-0.323752

>  <r_i_glide_hbond>  (127) 
-0.16

>  <r_i_glide_metal>  (127) 
-0

>  <r_i_glide_rewards>  (127) 
-0.978714

>  <r_i_glide_evdw>  (127) 
-20.5794

>  <r_i_glide_ecoul>  (127) 
-4.8276

>  <r_i_glide_erotb>  (127) 
0.150578

>  <r_i_glide_esite>  (127) 
0

>  <r_i_glide_emodel>  (127) 
-28.2446

>  <r_i_glide_energy>  (127) 
-25.407

>  <r_i_glide_einternal>  (127) 
1.46697

>  <r_i_glide_intrahb_reward>  (127) 
-0

>  <i_i_glide_confnum>  (127) 
5

>  <i_i_glide_posenum>  (127) 
19

>  <r_i_glide_eff_state_penalty>  (127) 
0

>  <ligand_id>  (127) 
38

>  <original_smiles>  (127) 
CC1=C2C3C(C(O)C4C(C3(C)C)C43CO3)C2(C)C(O)CC1c1ccoc1

>  <smiles>  (127) 
[H]OC1([H])C2([H])C([H])(C23OC3([H])[H])C(C([H])([H])[H])(C([H])([H])[H])C2([H])C3=C(C([H])([H])[H])C([H])(c4c([H])oc([H])c4[H])C([H])([H])C([H])(O[H])C3(C([H])([H])[H])C12[H]

$$$$
38:0:1
     RDKit          3D

 54 59  0  0  1  0  0  0  0  0999 V2000
    1.3642   -3.8214    3.5865 C   0  0  0  0  0  0  0  0  0  0  0  0
    2.2613   -2.6080    3.4850 C   0  0  0  0  0  0  0  0  0  0  0  0
    3.0401   -2.2923    2.4193 C   0  0  0  0  0  0  0  0  0  0  0  0
    3.4542   -2.8781    1.0635 C   0  0  1  0  0  0  0  0  0  0  0  0
    4.7365   -2.0871    1.3923 C   0  0  1  0  0  0  0  0  0  0  0  0
    5.4904   -1.7040    0.1360 C   0  0  1  0  0  0  0  0  0  0  0  0
    6.6993   -1.0662    0.4774 O   0  0  0  0  0  0  0  0  0  0  0  0
    5.8137   -3.0028   -0.6209 C   0  0  1  0  0  0  0  0  0  0  0  0
    4.9106   -4.3311   -0.3664 C   0  0  1  0  0  0  0  0  0  0  0  0
    3.7749   -4.3561    0.7053 C   0  0  0  0  0  0  0  0  0  0  0  0
    4.3034   -5.1990    1.8917 C   0  0  0  0  0  0  0  0  0  0  0  0
    2.5663   -5.0717    0.0865 C   0  0  0  0  0  0  0  0  0  0  0  0
    4.9698   -3.6242   -1.6428 C   0  0  2  0  0  0  0  0  0  0  0  0
    4.6738   -3.6846   -3.1163 C   0  0  0  0  0  0  0  0  0  0  0  0
    3.8370   -2.9332   -2.1910 O   0  0  0  0  0  0  0  0  0  0  0  0
    3.9888   -1.1052    2.3001 C   0  0  1  0  0  0  0  0  0  0  0  0
    3.3658    0.0993    1.5755 C   0  0  0  0  0  0  0  0  0  0  0  0
    4.4689   -0.7864    3.7254 C   0  0  1  0  0  0  0  0  0  0  0  0
    5.3538    0.3080    3.7212 O   0  0  0  0  0  0  0  0  0  0  0  0
    3.2762   -0.5219    4.6702 C   0  0  0  0  0  0  0  0  0  0  0  0
    2.2571   -1.6961    4.7278 C   0  0  1  0  0  0  0  0  0  0  0  0
    0.8728   -1.2017    5.1336 C   0  0  0  0  0  0  0  0  0  0  0  0
   -0.1328   -0.6587    4.2683 C   0  0  0  0  0  0  0  0  0  0  0  0
   -1.2012   -0.3509    5.0525 C   0  0  0  0  0  0  0  0  0  0  0  0
   -0.9481   -0.6463    6.3526 O   0  0  0  0  0  0  0  0  0  0  0  0
    0.3149   -1.1584    6.3754 C   0  0  0  0  0  0  0  0  0  0  0  0
    0.3297   -3.5220    3.7465 H   0  0  0  0  0  0  0  0  0  0  0  0
    1.6555   -4.4371    4.4345 H   0  0  0  0  0  0  0  0  0  0  0  0
    1.4010   -4.4348    2.6973 H   0  0  0  0  0  0  0  0  0  0  0  0
    2.9379   -2.3877    0.2342 H   0  0  0  0  0  0  0  0  0  0  0  0
    5.3830   -2.6841    2.0355 H   0  0  0  0  0  0  0  0  0  0  0  0
    4.9045   -1.0339   -0.5040 H   0  0  0  0  0  0  0  0  0  0  0  0
    6.5181   -0.3826    1.1038 H   0  0  0  0  0  0  0  0  0  0  0  0
    6.8720   -3.1493   -0.8447 H   0  0  0  0  0  0  0  0  0  0  0  0
    5.4054   -5.2988   -0.4615 H   0  0  0  0  0  0  0  0  0  0  0  0
    4.4829   -6.2308    1.5930 H   0  0  0  0  0  0  0  0  0  0  0  0
    3.6103   -5.2292    2.7207 H   0  0  0  0  0  0  0  0  0  0  0  0
    5.2518   -4.8330    2.2732 H   0  0  0  0  0  0  0  0  0  0  0  0
    2.8642   -6.0426   -0.3014 H   0  0  0  0  0  0  0  0  0  0  0  0
    2.1671   -4.5007   -0.7468 H   0  0  0  0  0  0  0  0  0  0  0  0
    1.7720   -5.2459    0.7991 H   0  0  0  0  0  0  0  0  0  0  0  0
    5.3472   -3.1075   -3.7412 H   0  0  0  0  0  0  0  0  0  0  0  0
    4.3081   -4.6396   -3.5020 H   0  0  0  0  0  0  0  0  0  0  0  0
    4.1443    0.8060    1.2869 H   0  0  0  0  0  0  0  0  0  0  0  0
    2.6241    0.6329    2.1736 H   0  0  0  0  0  0  0  0  0  0  0  0
    2.8851   -0.2067    0.6435 H   0  0  0  0  0  0  0  0  0  0  0  0
    5.0210   -1.6372    4.1205 H   0  0  0  0  0  0  0  0  0  0  0  0
    4.8811    1.0726    3.4216 H   0  0  0  0  0  0  0  0  0  0  0  0
    3.6310   -0.3023    5.6754 H   0  0  0  0  0  0  0  0  0  0  0  0
    2.7563    0.3827    4.3535 H   0  0  0  0  0  0  0  0  0  0  0  0
    2.5749   -2.3496    5.5403 H   0  0  0  0  0  0  0  0  0  0  0  0
   -0.0759   -0.5048    3.2027 H   0  0  0  0  0  0  0  0  0  0  0  0
   -2.1742    0.0783    4.8469 H   0  0  0  0  0  0  0  0  0  0  0  0
    0.6540   -1.4270    7.3717 H   0  0  0  0  0  0  0  0  0  0  0  0
  1  2  1  0
  1 27  1  0
  1 28  1  0
  1 29  1  0
  2 21  1  0
  2  3  2  0
  3 16  1  0
  3  4  1  0
  4 10  1  0
  4  5  1  0
  4 30  1  6
  5  6  1  0
  5 16  1  0
  5 31  1  1
  6  7  1  0
  6  8  1  0
  6 32  1  6
  7 33  1  0
  8 13  1  0
  8  9  1  0
  8 34  1  6
  9 10  1  0
  9 13  1  0
  9 35  1  6
 10 11  1  0
 10 12  1  0
 11 36  1  0
 11 37  1  0
 11 38  1  0
 12 39  1  0
 12 40  1  0
 12 41  1  0
 13 15  1  1
 13 14  1  0
 14 15  1  0
 14 42  1  0
 14 43  1  0
 16 17  1  6
 16 18  1  0
 17 44  1  0
 17 45  1  0
 17 46  1  0
 18 19  1  0
 18 20  1  0
 18 47  1  1
 19 48  1  0
 20 21  1  0
 20 49  1  0
 20 50  1  0
 21 22  1  0
 21 51  1  1
 22 26  2  0
 22 23  1  0
 23 24  2  0
 23 52  1  0
 24 25  1  0
 24 53  1  0
 25 26  1  0
 26 54  1  0
M  END
>  <i_m_ct_stereo_status>  (128) 
1

>  <s_m_source_file>  (128) 
/var/tmp/pbs.5076255.sched01/tmp5eg4wc32/41mqp692j8.sdf

>  <i_m_source_file_index>  (128) 
15

>  <i_lp_mmshare_version>  (128) 
48012

>  <i_f3d_flags>  (128) 
0

>  <s_epik_input>  (128) 
W2NIXTFvW2NIXVtjSF1jMVtDQEBIXShDPTJbQ0gzXSlbQ0gyXVtDQEhdKFtPSF0pW0NAQF0oW0NIM10pKFtDQEBIXTNbQ0BIXTRbT0hdKUMyW0NAQEhdM0MoW0NIM10pKFtDSDNdKVtDQEBIXTVbQ0BIXTRbQ0BAXTU2W0NIMl1PNg==

>  <s_epik_cmdline>  (128) 
J2VwaWtfcHl0aG9uJywgJy1waHQnLCAnMi4wJywgJy1waCcsICc3LjAnLCAnLXRuJywgJzgnLCAnLW1hJywgJzIwMCcsICctaW1hZScsICc8aW5maWxlLm1hZT4nLCAnLW9tYWUnLCAnPG91dGZpbGUubWFlPic=

>  <r_lp_tautomer_probability>  (128) 
1

>  <r_epik_Ionization_Penalty>  (128) 
6.38182e-07

>  <r_epik_Ionization_Penalty_Charging>  (128) 
0

>  <r_epik_Ionization_Penalty_Neutral>  (128) 
6.38182e-07

>  <r_epik_State_Penalty>  (128) 
-0

>  <r_epik_Charging_Adjusted_Penalty>  (128) 
0

>  <i_epik_Tot_Q>  (128) 
0

>  <i_epik_Tot_abs_Q>  (128) 
0

>  <s_lp_Force_Field>  (128) 
OPLS3e

>  <r_lp_Energy>  (128) 
40.3934

>  <b_lp_Chiralities_Consistent>  (128) 
1

>  <s_lp_Variant>  (128) 
38:0-1

>  <s_i_glide_gridfile>  (128) 
pfpi4k_grid

>  <i_i_glide_lignum>  (128) 
15

>  <i_i_glide_rotatable_bonds>  (128) 
3

>  <r_i_docking_score>  (128) 
-2.92531

>  <r_i_glide_ligand_efficiency>  (128) 
-0.112512

>  <r_i_glide_ligand_efficiency_sa>  (128) 
-0.333317

>  <r_i_glide_ligand_efficiency_ln>  (128) 
-0.687

>  <r_i_glide_gscore>  (128) 
-2.92531

>  <r_i_glide_lipo>  (128) 
-0.295335

>  <r_i_glide_hbond>  (128) 
-0.244936

>  <r_i_glide_metal>  (128) 
-0

>  <r_i_glide_rewards>  (128) 
-0.978714

>  <r_i_glide_evdw>  (128) 
-21.2919

>  <r_i_glide_ecoul>  (128) 
-3.2821

>  <r_i_glide_erotb>  (128) 
0.150578

>  <r_i_glide_esite>  (128) 
0

>  <r_i_glide_emodel>  (128) 
-27.6809

>  <r_i_glide_energy>  (128) 
-24.574

>  <r_i_glide_einternal>  (128) 
0.392781

>  <r_i_glide_intrahb_reward>  (128) 
-0

>  <i_i_glide_confnum>  (128) 
5

>  <i_i_glide_posenum>  (128) 
2

>  <r_i_glide_eff_state_penalty>  (128) 
0

>  <ligand_id>  (128) 
38

>  <original_smiles>  (128) 
CC1=C2C3C(C(O)C4C(C3(C)C)C43CO3)C2(C)C(O)CC1c1ccoc1

>  <smiles>  (128) 
[H]OC1([H])C2([H])C([H])(C23OC3([H])[H])C(C([H])([H])[H])(C([H])([H])[H])C2([H])C3=C(C([H])([H])[H])C([H])(c4c([H])oc([H])c4[H])C([H])([H])C([H])(O[H])C3(C([H])([H])[H])C12[H]

$$$$
38:0:2
     RDKit          3D

 54 59  0  0  1  0  0  0  0  0999 V2000
    2.4230   -9.0001    1.7544 C   0  0  0  0  0  0  0  0  0  0  0  0
    2.5196   -9.1083    3.2583 C   0  0  0  0  0  0  0  0  0  0  0  0
    3.5906   -8.7395    3.9952 C   0  0  0  0  0  0  0  0  0  0  0  0
    5.0217   -8.2203    3.8069 C   0  0  1  0  0  0  0  0  0  0  0  0
    5.2178   -9.0065    5.1203 C   0  0  1  0  0  0  0  0  0  0  0  0
    6.3963   -8.4668    5.9153 C   0  0  1  0  0  0  0  0  0  0  0  0
    6.6174   -9.2766    7.0452 O   0  0  0  0  0  0  0  0  0  0  0  0
    7.6323   -8.5857    5.0184 C   0  0  1  0  0  0  0  0  0  0  0  0
    7.4598   -8.6298    3.4120 C   0  0  1  0  0  0  0  0  0  0  0  0
    6.0608   -8.6550    2.7339 C   0  0  0  0  0  0  0  0  0  0  0  0
    5.8764  -10.0911    2.2021 C   0  0  0  0  0  0  0  0  0  0  0  0
    6.0832   -7.6876    1.5344 C   0  0  0  0  0  0  0  0  0  0  0  0
    8.1297   -7.5270    4.1206 C   0  0  2  0  0  0  0  0  0  0  0  0
    8.9693   -6.2828    4.0031 C   0  0  0  0  0  0  0  0  0  0  0  0
    7.5326   -6.2108    4.1572 O   0  0  0  0  0  0  0  0  0  0  0  0
    3.7389   -8.8633    5.5081 C   0  0  1  0  0  0  0  0  0  0  0  0
    3.3917   -7.5778    6.2645 C   0  0  0  0  0  0  0  0  0  0  0  0
    2.9041  -10.0792    5.9538 C   0  0  1  0  0  0  0  0  0  0  0  0
    2.9506  -10.2236    7.3555 O   0  0  0  0  0  0  0  0  0  0  0  0
    1.4411   -9.9185    5.4955 C   0  0  0  0  0  0  0  0  0  0  0  0
    1.2752   -9.6787    3.9606 C   0  0  1  0  0  0  0  0  0  0  0  0
   -0.0064   -8.9263    3.6351 C   0  0  0  0  0  0  0  0  0  0  0  0
   -0.5516   -7.7952    4.3173 C   0  0  0  0  0  0  0  0  0  0  0  0
   -1.7176   -7.4747    3.6944 C   0  0  0  0  0  0  0  0  0  0  0  0
   -1.9510   -8.3129    2.6532 O   0  0  0  0  0  0  0  0  0  0  0  0
   -0.9058   -9.1854    2.6307 C   0  0  0  0  0  0  0  0  0  0  0  0
    1.5853   -8.3750    1.4619 H   0  0  0  0  0  0  0  0  0  0  0  0
    2.2465   -9.9796    1.3237 H   0  0  0  0  0  0  0  0  0  0  0  0
    3.3155   -8.5953    1.2966 H   0  0  0  0  0  0  0  0  0  0  0  0
    5.1082   -7.1490    4.0190 H   0  0  0  0  0  0  0  0  0  0  0  0
    5.3936  -10.0650    4.8974 H   0  0  0  0  0  0  0  0  0  0  0  0
    6.2350   -7.4258    6.2475 H   0  0  0  0  0  0  0  0  0  0  0  0
    7.2289   -8.8624    7.6389 H   0  0  0  0  0  0  0  0  0  0  0  0
    8.4731   -9.1237    5.4591 H   0  0  0  0  0  0  0  0  0  0  0  0
    8.2088   -9.1663    2.8387 H   0  0  0  0  0  0  0  0  0  0  0  0
    6.6090  -10.3384    1.4320 H   0  0  0  0  0  0  0  0  0  0  0  0
    4.9031  -10.2574    1.7608 H   0  0  0  0  0  0  0  0  0  0  0  0
    6.0087  -10.8368    2.9788 H   0  0  0  0  0  0  0  0  0  0  0  0
    6.9306   -7.9189    0.9045 H   0  0  0  0  0  0  0  0  0  0  0  0
    6.2092   -6.6620    1.8605 H   0  0  0  0  0  0  0  0  0  0  0  0
    5.1881   -7.7345    0.9169 H   0  0  0  0  0  0  0  0  0  0  0  0
    9.5820   -6.0790    4.8725 H   0  0  0  0  0  0  0  0  0  0  0  0
    9.4015   -6.1230    3.0182 H   0  0  0  0  0  0  0  0  0  0  0  0
    3.7465   -7.6474    7.3007 H   0  0  0  0  0  0  0  0  0  0  0  0
    2.3201   -7.3738    6.2837 H   0  0  0  0  0  0  0  0  0  0  0  0
    3.9023   -6.7222    5.8235 H   0  0  0  0  0  0  0  0  0  0  0  0
    3.2888  -10.9946    5.4961 H   0  0  0  0  0  0  0  0  0  0  0  0
    2.4239  -11.0160    7.5713 H   0  0  0  0  0  0  0  0  0  0  0  0
    0.8301  -10.7752    5.7752 H   0  0  0  0  0  0  0  0  0  0  0  0
    1.0136   -9.0934    6.0588 H   0  0  0  0  0  0  0  0  0  0  0  0
    1.1488  -10.6571    3.5053 H   0  0  0  0  0  0  0  0  0  0  0  0
   -0.1711   -7.2837    5.1857 H   0  0  0  0  0  0  0  0  0  0  0  0
   -2.4693   -6.7300    3.8896 H   0  0  0  0  0  0  0  0  0  0  0  0
   -0.9874   -9.9236    1.8446 H   0  0  0  0  0  0  0  0  0  0  0  0
  1  2  1  0
  1 27  1  0
  1 28  1  0
  1 29  1  0
  2 21  1  0
  2  3  2  0
  3 16  1  0
  3  4  1  0
  4 10  1  0
  4  5  1  0
  4 30  1  1
  5  6  1  0
  5 16  1  0
  5 31  1  6
  6  7  1  0
  6  8  1  0
  6 32  1  1
  7 33  1  0
  8 13  1  0
  8  9  1  0
  8 34  1  1
  9 10  1  0
  9 13  1  0
  9 35  1  6
 10 11  1  0
 10 12  1  0
 11 36  1  0
 11 37  1  0
 11 38  1  0
 12 39  1  0
 12 40  1  0
 12 41  1  0
 13 15  1  1
 13 14  1  0
 14 15  1  0
 14 42  1  0
 14 43  1  0
 16 17  1  1
 16 18  1  0
 17 44  1  0
 17 45  1  0
 17 46  1  0
 18 19  1  0
 18 20  1  0
 18 47  1  6
 19 48  1  0
 20 21  1  0
 20 49  1  0
 20 50  1  0
 21 22  1  0
 21 51  1  6
 22 26  2  0
 22 23  1  0
 23 24  2  0
 23 52  1  0
 24 25  1  0
 24 53  1  0
 25 26  1  0
 26 54  1  0
M  END
>  <i_m_ct_stereo_status>  (129) 
1

>  <s_m_source_file>  (129) 
/var/tmp/pbs.5076255.sched01/tmp5eg4wc32/41mqp692j8.sdf

>  <i_m_source_file_index>  (129) 
15

>  <i_lp_mmshare_version>  (129) 
48012

>  <i_f3d_flags>  (129) 
0

>  <s_epik_input>  (129) 
W2NIXTFvW2NIXVtjSF1jMVtDQEBIXShDPTJbQ0gzXSlbQ0gyXVtDQEhdKFtPSF0pW0NAQF0oW0NIM10pKFtDQEBIXTNbQ0BIXTRbT0hdKUMyW0NAQEhdM0MoW0NIM10pKFtDSDNdKVtDQEBIXTVbQ0BIXTRbQ0BAXTU2W0NIMl1PNg==

>  <s_epik_cmdline>  (129) 
J2VwaWtfcHl0aG9uJywgJy1waHQnLCAnMi4wJywgJy1waCcsICc3LjAnLCAnLXRuJywgJzgnLCAnLW1hJywgJzIwMCcsICctaW1hZScsICc8aW5maWxlLm1hZT4nLCAnLW9tYWUnLCAnPG91dGZpbGUubWFlPic=

>  <r_lp_tautomer_probability>  (129) 
1

>  <r_epik_Ionization_Penalty>  (129) 
6.38182e-07

>  <r_epik_Ionization_Penalty_Charging>  (129) 
0

>  <r_epik_Ionization_Penalty_Neutral>  (129) 
6.38182e-07

>  <r_epik_State_Penalty>  (129) 
-0

>  <r_epik_Charging_Adjusted_Penalty>  (129) 
0

>  <i_epik_Tot_Q>  (129) 
0

>  <i_epik_Tot_abs_Q>  (129) 
0

>  <s_lp_Force_Field>  (129) 
OPLS3e

>  <r_lp_Energy>  (129) 
40.3934

>  <b_lp_Chiralities_Consistent>  (129) 
1

>  <s_lp_Variant>  (129) 
38:0-1

>  <s_i_glide_gridfile>  (129) 
pfpi4k_grid

>  <i_i_glide_lignum>  (129) 
15

>  <i_i_glide_rotatable_bonds>  (129) 
3

>  <r_i_docking_score>  (129) 
-2.89779

>  <r_i_glide_ligand_efficiency>  (129) 
-0.111454

>  <r_i_glide_ligand_efficiency_sa>  (129) 
-0.330181

>  <r_i_glide_ligand_efficiency_ln>  (129) 
-0.680537

>  <r_i_glide_gscore>  (129) 
-2.89779

>  <r_i_glide_lipo>  (129) 
-0.209043

>  <r_i_glide_hbond>  (129) 
-0.16

>  <r_i_glide_metal>  (129) 
-0

>  <r_i_glide_rewards>  (129) 
-0.978714

>  <r_i_glide_evdw>  (129) 
-19.5437

>  <r_i_glide_ecoul>  (129) 
-4.82285

>  <r_i_glide_erotb>  (129) 
0.150578

>  <r_i_glide_esite>  (129) 
0

>  <r_i_glide_emodel>  (129) 
-27.4717

>  <r_i_glide_energy>  (129) 
-24.3666

>  <r_i_glide_einternal>  (129) 
1.31906

>  <r_i_glide_intrahb_reward>  (129) 
-0

>  <i_i_glide_confnum>  (129) 
5

>  <i_i_glide_posenum>  (129) 
1

>  <r_i_glide_eff_state_penalty>  (129) 
0

>  <ligand_id>  (129) 
38

>  <original_smiles>  (129) 
CC1=C2C3C(C(O)C4C(C3(C)C)C43CO3)C2(C)C(O)CC1c1ccoc1

>  <smiles>  (129) 
[H]OC1([H])C2([H])C([H])(C23OC3([H])[H])C(C([H])([H])[H])(C([H])([H])[H])C2([H])C3=C(C([H])([H])[H])C([H])(c4c([H])oc([H])c4[H])C([H])([H])C([H])(O[H])C3(C([H])([H])[H])C12[H]

$$$$
39:0:0
     RDKit          3D

 84 90  0  0  1  0  0  0  0  0999 V2000
    7.1773   -6.0742    4.3034 C   0  0  0  0  0  0  0  0  0  0  0  0
    5.9839   -6.9831    4.6089 C   0  0  0  0  0  0  0  0  0  0  0  0
    5.1872   -7.4856    3.6041 C   0  0  0  0  0  0  0  0  0  0  0  0
    4.0555   -8.5084    3.7960 C   0  0  0  0  0  0  0  0  0  0  0  0
    2.7269   -8.0595    3.1950 C   0  0  0  0  0  0  0  0  0  0  0  0
    2.0637   -7.3363    2.4059 C   0  0  0  0  0  0  0  0  0  0  0  0
    1.2014   -8.2710    3.2640 C   0  0  0  0  0  0  0  0  0  0  0  0
    2.1561   -6.4417    1.2807 C   0  0  0  0  0  0  0  0  0  0  0  0
    1.1571   -5.8668    0.8502 O   0  0  0  0  0  0  0  0  0  0  0  0
    3.5279   -6.2305    0.6096 C   0  0  0  0  0  0  0  0  0  0  0  0
    4.7828   -5.9029    1.4816 C   0  0  0  0  0  0  0  0  0  0  0  0
    5.8337   -5.3161    0.5440 C   0  0  0  0  0  0  0  0  0  0  0  0
    4.4684   -4.8082    2.5251 C   0  0  0  0  0  0  0  0  0  0  0  0
    5.4100   -7.2004    2.1042 C   0  0  0  0  0  0  0  0  0  0  0  0
    5.8550   -7.3087    6.1383 C   0  0  2  0  0  0  0  0  0  0  0  0
    5.1926   -8.6682    6.5410 C   0  0  0  0  0  0  0  0  0  0  0  0
    3.7618   -8.3540    7.0466 C   0  0  0  0  0  0  0  0  0  0  0  0
    3.9169   -6.9995    7.6909 C   0  0  2  0  0  0  0  0  0  0  0  0
    2.9790   -5.8057    7.3765 C   0  0  2  0  0  0  0  0  0  0  0  0
    1.5265   -6.0086    6.9271 C   0  0  1  0  0  0  0  0  0  0  0  0
    0.6063   -6.6274    7.9968 C   0  0  1  0  0  0  0  0  0  0  0  0
    1.1803   -7.6100    8.8425 O   0  0  0  0  0  0  0  0  0  0  0  0
    0.0771   -5.4226    8.7729 C   0  0  0  0  0  0  0  0  0  0  0  0
   -0.1391   -4.3175    7.7152 C   0  0  1  0  0  0  0  0  0  0  0  0
   -1.6372   -4.2948    7.3136 C   0  0  0  0  0  0  0  0  0  0  0  0
    0.2827   -2.9399    8.2558 C   0  0  0  0  0  0  0  0  0  0  0  0
    0.2021   -1.8267    7.1945 C   0  0  0  0  0  0  0  0  0  0  0  0
    0.5909   -2.3013    5.7862 C   0  0  0  0  0  0  0  0  0  0  0  0
    0.1613   -1.7094    4.8000 O   0  0  0  0  0  0  0  0  0  0  0  0
    1.5025   -3.5558    5.7058 C   0  0  1  0  0  0  0  0  0  0  0  0
    1.5810   -3.9470    4.2003 C   0  0  0  0  0  0  0  0  0  0  0  0
    2.8965   -3.0693    6.2260 C   0  0  0  0  0  0  0  0  0  0  0  0
    4.1201   -3.9528    5.9754 C   0  0  0  0  0  0  0  0  0  0  0  0
    5.1599   -3.4303    5.5763 O   0  0  0  0  0  0  0  0  0  0  0  0
    3.9575   -5.4192    6.2738 C   0  0  1  0  0  0  0  0  0  0  0  0
    5.0715   -6.2484    6.9888 C   0  0  2  0  0  0  0  0  0  0  0  0
    5.9974   -5.4873    7.9550 C   0  0  0  0  0  0  0  0  0  0  0  0
    0.7634   -4.7207    6.5008 C   0  0  1  0  0  0  0  0  0  0  0  0
    8.0994   -6.4237    4.7529 H   0  0  0  0  0  0  0  0  0  0  0  0
    6.9875   -5.0907    4.6934 H   0  0  0  0  0  0  0  0  0  0  0  0
    7.3838   -5.9485    3.2551 H   0  0  0  0  0  0  0  0  0  0  0  0
    4.3466   -9.5322    3.4538 H   0  0  0  0  0  0  0  0  0  0  0  0
    3.7237   -8.5734    4.7625 H   0  0  0  0  0  0  0  0  0  0  0  0
    0.7970   -9.2067    2.9015 H   0  0  0  0  0  0  0  0  0  0  0  0
    0.6148   -7.8579    4.0766 H   0  0  0  0  0  0  0  0  0  0  0  0
    3.7561   -7.1174    0.0239 H   0  0  0  0  0  0  0  0  0  0  0  0
    3.3801   -5.4247   -0.1048 H   0  0  0  0  0  0  0  0  0  0  0  0
    6.7421   -5.0541    1.0810 H   0  0  0  0  0  0  0  0  0  0  0  0
    5.4638   -4.4167    0.0620 H   0  0  0  0  0  0  0  0  0  0  0  0
    6.0929   -6.0276   -0.2306 H   0  0  0  0  0  0  0  0  0  0  0  0
    5.3628   -4.4345    3.0348 H   0  0  0  0  0  0  0  0  0  0  0  0
    3.8262   -5.2070    3.3003 H   0  0  0  0  0  0  0  0  0  0  0  0
    3.9656   -3.9453    2.0650 H   0  0  0  0  0  0  0  0  0  0  0  0
    6.4849   -7.2781    1.9228 H   0  0  0  0  0  0  0  0  0  0  0  0
    5.0301   -8.0764    1.5865 H   0  0  0  0  0  0  0  0  0  0  0  0
    6.8829   -7.3878    6.5178 H   0  0  0  0  0  0  0  0  0  0  0  0
    5.2977   -9.4274    5.7787 H   0  0  0  0  0  0  0  0  0  0  0  0
    5.7492   -9.0938    7.3705 H   0  0  0  0  0  0  0  0  0  0  0  0
    2.9940   -8.2209    6.3041 H   0  0  0  0  0  0  0  0  0  0  0  0
    3.3736   -9.1403    7.6854 H   0  0  0  0  0  0  0  0  0  0  0  0
    4.0943   -7.1196    8.7649 H   0  0  0  0  0  0  0  0  0  0  0  0
    3.0317   -5.1083    8.2160 H   0  0  0  0  0  0  0  0  0  0  0  0
    1.5314   -6.6768    6.0649 H   0  0  0  0  0  0  0  0  0  0  0  0
   -0.2191   -7.1170    7.4798 H   0  0  0  0  0  0  0  0  0  0  0  0
    1.4949   -8.3280    8.3056 H   0  0  0  0  0  0  0  0  0  0  0  0
   -0.8314   -5.6697    9.3184 H   0  0  0  0  0  0  0  0  0  0  0  0
    0.8125   -5.1174    9.5190 H   0  0  0  0  0  0  0  0  0  0  0  0
   -1.8408   -3.6143    6.4885 H   0  0  0  0  0  0  0  0  0  0  0  0
   -2.2678   -3.9910    8.1465 H   0  0  0  0  0  0  0  0  0  0  0  0
   -1.9880   -5.2778    6.9992 H   0  0  0  0  0  0  0  0  0  0  0  0
   -0.3268   -2.6698    9.1122 H   0  0  0  0  0  0  0  0  0  0  0  0
    1.2975   -2.9919    8.6426 H   0  0  0  0  0  0  0  0  0  0  0  0
   -0.8214   -1.4619    7.1219 H   0  0  0  0  0  0  0  0  0  0  0  0
    0.8238   -0.9725    7.4659 H   0  0  0  0  0  0  0  0  0  0  0  0
    2.0614   -4.9130    4.1007 H   0  0  0  0  0  0  0  0  0  0  0  0
    2.1189   -3.1969    3.6001 H   0  0  0  0  0  0  0  0  0  0  0  0
    0.5941   -4.0819    3.7343 H   0  0  0  0  0  0  0  0  0  0  0  0
    3.1314   -2.1120    5.7745 H   0  0  0  0  0  0  0  0  0  0  0  0
    2.8695   -2.8757    7.2844 H   0  0  0  0  0  0  0  0  0  0  0  0
    3.6586   -5.9330    5.3582 H   0  0  0  0  0  0  0  0  0  0  0  0
    5.4176   -4.8846    8.6528 H   0  0  0  0  0  0  0  0  0  0  0  0
    6.6769   -4.8152    7.4331 H   0  0  0  0  0  0  0  0  0  0  0  0
    6.5916   -6.1718    8.5567 H   0  0  0  0  0  0  0  0  0  0  0  0
    0.0605   -5.1253    5.7672 H   0  0  0  0  0  0  0  0  0  0  0  0
  1  2  1  0
  1 39  1  0
  1 40  1  0
  1 41  1  0
  2  3  2  3
  2 15  1  0
  3 14  1  0
  3  4  1  0
  4  5  1  0
  4 42  1  0
  4 43  1  0
  5  7  1  0
  5  6  2  0
  6  7  1  0
  6  8  1  0
  7 44  1  0
  7 45  1  0
  8  9  2  0
  8 10  1  0
 10 11  1  0
 10 46  1  0
 10 47  1  0
 11 12  1  0
 11 13  1  0
 11 14  1  0
 12 48  1  0
 12 49  1  0
 12 50  1  0
 13 51  1  0
 13 52  1  0
 13 53  1  0
 14 54  1  0
 14 55  1  0
 15 36  1  0
 15 16  1  0
 15 56  1  1
 16 17  1  0
 16 57  1  0
 16 58  1  0
 17 18  1  0
 17 59  1  0
 17 60  1  0
 18 36  1  0
 18 19  1  0
 18 61  1  1
 19 35  1  0
 19 20  1  0
 19 62  1  1
 20 38  1  0
 20 21  1  0
 20 63  1  6
 21 22  1  0
 21 23  1  0
 21 64  1  6
 22 65  1  0
 23 24  1  0
 23 66  1  0
 23 67  1  0
 24 38  1  0
 24 25  1  6
 24 26  1  0
 25 68  1  0
 25 69  1  0
 25 70  1  0
 26 27  1  0
 26 71  1  0
 26 72  1  0
 27 28  1  0
 27 73  1  0
 27 74  1  0
 28 29  2  0
 28 30  1  0
 30 31  1  6
 30 32  1  0
 30 38  1  0
 31 75  1  0
 31 76  1  0
 31 77  1  0
 32 33  1  0
 32 78  1  0
 32 79  1  0
 33 34  2  0
 33 35  1  0
 35 36  1  0
 35 80  1  6
 36 37  1  1
 37 81  1  0
 37 82  1  0
 37 83  1  0
 38 84  1  6
M  END
>  <i_m_ct_stereo_status>  (130) 
1

>  <s_m_source_file>  (130) 
/var/tmp/pbs.5076255.sched01/tmp5eg4wc32/41mqp692j8.sdf

>  <i_m_source_file_index>  (130) 
16

>  <i_lp_mmshare_version>  (130) 
48012

>  <i_f3d_flags>  (130) 
0

>  <s_epik_input>  (130) 
QzEyPUMoW0NIMl0yKUMoPU8pW0NIMl1DKFtDSDNdKShbQ0gzXSlbQ0gyXUMoL1tDSDJdMSk9QyhcW0NIM10pW0NASF0oW0NIMl1bQ0gyXTMpW0NAXShbQ0gzXSkoW0NASF0zW0NAQEhdNFtDQEBIXShbQ0BASF0oW09IXSlbQ0gyXTUpW0NASF02W0NAQF01N1tDSDNdKVtDQEBIXTRDKD1PKVtDSDJdW0NAXTYoW0NIM10pQyg9TylbQ0gyXVtDSDJdNw==

>  <s_epik_cmdline>  (130) 
J2VwaWtfcHl0aG9uJywgJy1waHQnLCAnMi4wJywgJy1waCcsICc3LjAnLCAnLXRuJywgJzgnLCAnLW1hJywgJzIwMCcsICctaW1hZScsICc8aW5maWxlLm1hZT4nLCAnLW9tYWUnLCAnPG91dGZpbGUubWFlPic=

>  <r_lp_tautomer_probability>  (130) 
1

>  <r_epik_Ionization_Penalty>  (130) 
4.21329e-07

>  <r_epik_Ionization_Penalty_Charging>  (130) 
0

>  <r_epik_Ionization_Penalty_Neutral>  (130) 
4.21329e-07

>  <r_epik_State_Penalty>  (130) 
-0

>  <r_epik_Charging_Adjusted_Penalty>  (130) 
0

>  <i_epik_Tot_Q>  (130) 
0

>  <i_epik_Tot_abs_Q>  (130) 
0

>  <s_lp_Force_Field>  (130) 
OPLS3e

>  <r_lp_Energy>  (130) 
63.8596

>  <b_lp_Chiralities_Consistent>  (130) 
1

>  <s_lp_Variant>  (130) 
39:0-1

>  <s_i_glide_gridfile>  (130) 
pfpi4k_grid

>  <i_i_glide_lignum>  (130) 
16

>  <i_i_glide_rotatable_bonds>  (130) 
2

>  <r_i_docking_score>  (130) 
-0.103456

>  <r_i_glide_ligand_efficiency>  (130) 
-0.00272252

>  <r_i_glide_ligand_efficiency_sa>  (130) 
-0.00915304

>  <r_i_glide_ligand_efficiency_ln>  (130) 
-0.0223081

>  <r_i_glide_gscore>  (130) 
-0.103456

>  <r_i_glide_lipo>  (130) 
-0.320445

>  <r_i_glide_hbond>  (130) 
-0.16

>  <r_i_glide_metal>  (130) 
-0

>  <r_i_glide_rewards>  (130) 
-1.84207e-05

>  <r_i_glide_evdw>  (130) 
-17.6457

>  <r_i_glide_ecoul>  (130) 
-2.8147

>  <r_i_glide_erotb>  (130) 
0.0763359

>  <r_i_glide_esite>  (130) 
-0.0308802

>  <r_i_glide_emodel>  (130) 
-11.4374

>  <r_i_glide_energy>  (130) 
-20.4604

>  <r_i_glide_einternal>  (130) 
2.05085

>  <r_i_glide_intrahb_reward>  (130) 
-0

>  <i_i_glide_confnum>  (130) 
4

>  <i_i_glide_posenum>  (130) 
5

>  <r_i_glide_eff_state_penalty>  (130) 
0

>  <ligand_id>  (130) 
39

>  <original_smiles>  (130) 
CC(=C1CC2=C(C2)C(=O)CC(C)(C)C1)C1CCC2C3C4C(O)CC5(C)CCC(=O)C(C)(CC(=O)C3C12C)C45

>  <smiles>  (130) 
[H]OC1([H])C([H])([H])C2(C([H])([H])[H])C([H])([H])C([H])([H])C(=O)C3(C([H])([H])[H])C([H])([H])C(=O)C4([H])C([H])(C1([H])C32[H])C1([H])C([H])([H])C([H])([H])C([H])(C(=C2C([H])([H])C3=C(C(=O)C([H])([H])C(C([H])([H])[H])(C([H])([H])[H])C2([H])[H])C3([H])[H])C([H])([H])[H])C41C([H])([H])[H]

$$$$
40:0:0
     RDKit          3D

 62 69  0  0  1  0  0  0  0  0999 V2000
    1.3639   -4.0959    6.5373 C   0  0  0  0  0  0  0  0  0  0  0  0
    2.5444   -3.5520    5.9525 O   0  0  0  0  0  0  0  0  0  0  0  0
    2.4694   -3.2155    4.5613 C   0  0  2  0  0  0  0  0  0  0  0  0
    2.5374   -4.5316    3.7167 C   0  0  0  0  0  0  0  0  0  0  0  0
    4.0900   -4.3943    3.6269 C   0  0  1  0  0  0  0  0  0  0  0  0
    4.9125   -3.7538    2.4656 C   0  0  0  0  0  0  0  0  0  0  0  0
    4.0255   -2.5286    2.6355 C   0  0  1  0  0  0  0  0  0  0  0  0
    3.8691   -2.9638    4.0820 C   0  0  1  0  0  0  0  0  0  0  0  0
    4.3014   -1.0802    2.4015 C   0  0  2  0  0  0  0  0  0  0  0  0
    5.4508   -0.6052    3.1368 O   0  0  0  0  0  0  0  0  0  0  0  0
    4.9920    0.1533    4.1625 C   0  0  0  0  0  0  0  0  0  0  0  0
    5.7155    0.7141    5.2431 C   0  0  0  0  0  0  0  0  0  0  0  0
    7.0682    0.5457    5.2886 O   0  0  0  0  0  0  0  0  0  0  0  0
    5.0487    1.4442    6.2451 C   0  0  0  0  0  0  0  0  0  0  0  0
    3.6398    1.5947    6.2203 C   0  0  0  0  0  0  0  0  0  0  0  0
    2.8972    1.0414    5.1635 C   0  0  0  0  0  0  0  0  0  0  0  0
    3.6245    0.3808    4.1539 C   0  0  0  0  0  0  0  0  0  0  0  0
    3.0669   -0.2327    2.9001 C   0  0  1  0  0  0  0  0  0  0  0  0
    2.8562    0.8442    1.7910 C   0  0  0  0  0  0  0  0  0  0  0  0
    1.9089    1.9615    2.2013 C   0  0  0  0  0  0  0  0  0  0  0  0
    0.6139    1.4073    2.6843 N   0  0  2  0  0  0  0  0  0  0  0  0
   -0.4187    2.4512    2.9909 C   0  0  0  0  0  0  0  0  0  0  0  0
    0.1366    3.7593    3.5635 C   0  0  0  0  0  0  0  0  0  0  0  0
   -0.3030    4.2436    4.9352 C   0  0  0  0  0  0  0  0  0  0  0  0
   -0.7495    4.9798    3.7022 C   0  0  0  0  0  0  0  0  0  0  0  0
    0.7894    0.3528    3.7490 C   0  0  2  0  0  0  0  0  0  0  0  0
    1.3748    0.9922    5.0421 C   0  0  0  0  0  0  0  0  0  0  0  0
    1.6505   -0.8744    3.2546 C   0  0  1  0  0  0  0  0  0  0  0  0
    1.0290   -1.3803    2.0826 O   0  0  0  0  0  0  0  0  0  0  0  0
    1.4714   -2.0314    4.3499 C   0  0  0  0  0  0  0  0  0  0  0  0
    1.5654   -4.3606    7.5753 H   0  0  0  0  0  0  0  0  0  0  0  0
    1.0222   -5.0014    6.0370 H   0  0  0  0  0  0  0  0  0  0  0  0
    0.5445   -3.3785    6.5416 H   0  0  0  0  0  0  0  0  0  0  0  0
    2.2418   -5.4371    4.2428 H   0  0  0  0  0  0  0  0  0  0  0  0
    2.0440   -4.4748    2.7455 H   0  0  0  0  0  0  0  0  0  0  0  0
    4.6599   -4.9887    4.3431 H   0  0  0  0  0  0  0  0  0  0  0  0
    5.9606   -3.5672    2.7166 H   0  0  0  0  0  0  0  0  0  0  0  0
    4.8029   -4.2573    1.5057 H   0  0  0  0  0  0  0  0  0  0  0  0
    3.1471   -2.7616    2.0356 H   0  0  0  0  0  0  0  0  0  0  0  0
    4.5952   -2.5835    4.8067 H   0  0  0  0  0  0  0  0  0  0  0  0
    4.4875   -0.9293    1.3373 H   0  0  0  0  0  0  0  0  0  0  0  0
    7.4046    0.1384    4.5031 H   0  0  0  0  0  0  0  0  0  0  0  0
    5.6127    1.8749    7.0571 H   0  0  0  0  0  0  0  0  0  0  0  0
    3.1341    2.1192    7.0258 H   0  0  0  0  0  0  0  0  0  0  0  0
    3.8038    1.3079    1.5288 H   0  0  0  0  0  0  0  0  0  0  0  0
    2.4946    0.3744    0.8681 H   0  0  0  0  0  0  0  0  0  0  0  0
    2.3862    2.5555    2.9761 H   0  0  0  0  0  0  0  0  0  0  0  0
    1.7266    2.6267    1.3599 H   0  0  0  0  0  0  0  0  0  0  0  0
   -0.9428    2.6758    2.0724 H   0  0  0  0  0  0  0  0  0  0  0  0
   -1.1818    2.0411    3.6485 H   0  0  0  0  0  0  0  0  0  0  0  0
    1.1380    4.0366    3.2311 H   0  0  0  0  0  0  0  0  0  0  0  0
   -1.0332    3.6334    5.4784 H   0  0  0  0  0  0  0  0  0  0  0  0
    0.4886    4.6682    5.5527 H   0  0  0  0  0  0  0  0  0  0  0  0
   -0.2658    5.9280    3.4677 H   0  0  0  0  0  0  0  0  0  0  0  0
   -1.7860    4.8901    3.3646 H   0  0  0  0  0  0  0  0  0  0  0  0
   -0.2132   -0.0060    3.9699 H   0  0  0  0  0  0  0  0  0  0  0  0
    1.0046    0.4486    5.9079 H   0  0  0  0  0  0  0  0  0  0  0  0
    1.0057    2.0018    5.1999 H   0  0  0  0  0  0  0  0  0  0  0  0
    1.1681   -0.8048    1.3394 H   0  0  0  0  0  0  0  0  0  0  0  0
    0.4724   -2.4504    4.2400 H   0  0  0  0  0  0  0  0  0  0  0  0
    1.4310   -1.5473    5.3230 H   0  0  0  0  0  0  0  0  0  0  0  0
    0.2172    0.9030    1.8944 H   0  0  0  0  0  0  0  0  0  0  0  0
  1  2  1  0
  1 31  1  0
  1 32  1  0
  1 33  1  0
  3  2  1  1
  3  8  1  0
  3 30  1  0
  3  4  1  0
  4  5  1  0
  4 34  1  0
  4 35  1  0
  5  8  1  0
  5  6  1  0
  5 36  1  1
  6  7  1  0
  6 37  1  0
  6 38  1  0
  7  8  1  0
  7  9  1  0
  7 39  1  6
  8 40  1  1
  9 18  1  0
  9 10  1  0
  9 41  1  6
 10 11  1  0
 11 17  2  0
 11 12  1  0
 12 13  1  0
 12 14  2  0
 13 42  1  0
 14 15  1  0
 14 43  1  0
 15 16  2  0
 15 44  1  0
 16 27  1  0
 16 17  1  0
 17 18  1  0
 18 28  1  0
 18 19  1  6
 19 20  1  0
 19 45  1  0
 19 46  1  0
 20 21  1  0
 20 47  1  0
 20 48  1  0
 21 22  1  0
 21 26  1  0
 21 62  1  6
 22 23  1  0
 22 49  1  0
 22 50  1  0
 23 25  1  0
 23 24  1  0
 23 51  1  0
 24 25  1  0
 24 52  1  0
 24 53  1  0
 25 54  1  0
 25 55  1  0
 26 27  1  0
 26 28  1  0
 26 56  1  1
 27 57  1  0
 27 58  1  0
 28 29  1  6
 28 30  1  0
 29 59  1  0
 30 60  1  0
 30 61  1  0
M  CHG  1  21   1
M  END
>  <i_m_ct_stereo_status>  (131) 
1

>  <s_m_source_file>  (131) 
/var/tmp/pbs.5076255.sched01/tmp5eg4wc32/41mqp692j8.sdf

>  <i_m_source_file_index>  (131) 
18

>  <i_lp_mmshare_version>  (131) 
48012

>  <i_f3d_flags>  (131) 
0

>  <s_epik_input>  (131) 
W0NAXTEyM1tDQEBIXTRbQ0BASF01W0NASF02W0NAXShPW0NIM10pKFtDSDJdW0NASF02W0NIMl01KVtDSDJdW0NAQF0zKFtPSF0pW0NASF0oTihbQ0gyXVtDSDJdMilbQ0gyXVtDSF03W0NIMl1bQ0gyXTcpW0NIMl1jOGMxYyhPNCljKFtPSF0pW2NIXVtjSF04

>  <s_epik_cmdline>  (131) 
J2VwaWtfcHl0aG9uJywgJy1waHQnLCAnMi4wJywgJy1waCcsICc3LjAnLCAnLXRuJywgJzgnLCAnLW1hJywgJzIwMCcsICctaW1hZScsICc8aW5maWxlLm1hZT4nLCAnLW9tYWUnLCAnPG91dGZpbGUubWFlPic=

>  <r_lp_tautomer_probability>  (131) 
1

>  <r_epik_Ionization_Penalty>  (131) 
0.0326623

>  <r_epik_Ionization_Penalty_Charging>  (131) 
0.0241859

>  <r_epik_Ionization_Penalty_Neutral>  (131) 
0.00847643

>  <r_epik_State_Penalty>  (131) 
0.0258006

>  <r_epik_Charging_Adjusted_Penalty>  (131) 
0.0499865

>  <i_epik_Tot_Q>  (131) 
1

>  <i_epik_Tot_abs_Q>  (131) 
1

>  <s_lp_Force_Field>  (131) 
OPLS3e

>  <r_lp_Energy>  (131) 
112.464

>  <b_lp_Chiralities_Consistent>  (131) 
1

>  <s_lp_Variant>  (131) 
40:0-1

>  <s_i_glide_gridfile>  (131) 
pfpi4k_grid

>  <i_i_glide_lignum>  (131) 
18

>  <i_i_glide_rotatable_bonds>  (131) 
5

>  <r_i_docking_score>  (131) 
-2.16541

>  <r_i_glide_ligand_efficiency>  (131) 
-0.0721802

>  <r_i_glide_ligand_efficiency_sa>  (131) 
-0.224281

>  <r_i_glide_ligand_efficiency_ln>  (131) 
-0.492004

>  <r_i_glide_gscore>  (131) 
-2.16541

>  <r_i_glide_lipo>  (131) 
-0.33583

>  <r_i_glide_hbond>  (131) 
-0.0709668

>  <r_i_glide_metal>  (131) 
-0

>  <r_i_glide_rewards>  (131) 
-0.610051

>  <r_i_glide_evdw>  (131) 
-17.6158

>  <r_i_glide_ecoul>  (131) 
-3.03992

>  <r_i_glide_erotb>  (131) 
0.233796

>  <r_i_glide_esite>  (131) 
-0.0455772

>  <r_i_glide_emodel>  (131) 
-21.0793

>  <r_i_glide_energy>  (131) 
-20.6557

>  <r_i_glide_einternal>  (131) 
5.73563

>  <r_i_glide_intrahb_reward>  (131) 
-0

>  <i_i_glide_confnum>  (131) 
1

>  <i_i_glide_posenum>  (131) 
34

>  <r_i_glide_eff_state_penalty>  (131) 
0

>  <ligand_id>  (131) 
40

>  <original_smiles>  (131) 
COC12CC3CC(C31)C1Oc3c(O)ccc4c3C13CCN(CC1CC1)C(C4)C3(O)C2

>  <smiles>  (131) 
[H]Oc1c([H])c([H])c2c3c1OC1([H])C4([H])C([H])([H])C5([H])C([H])([H])C(OC([H])([H])[H])(C([H])([H])C6(O[H])C31C([H])([H])C([H])([H])[N+]([H])(C([H])([H])C1([H])C([H])([H])C1([H])[H])C6([H])C2([H])[H])C54[H]

$$$$
40:0:1
     RDKit          3D

 62 69  0  0  1  0  0  0  0  0999 V2000
    0.1517   -3.4774    5.6060 C   0  0  0  0  0  0  0  0  0  0  0  0
    1.1680   -2.4780    5.6096 O   0  0  0  0  0  0  0  0  0  0  0  0
    1.2918   -1.6901    4.4199 C   0  0  2  0  0  0  0  0  0  0  0  0
    2.0064   -2.5436    3.3185 C   0  0  0  0  0  0  0  0  0  0  0  0
    3.3905   -1.9855    3.7748 C   0  0  1  0  0  0  0  0  0  0  0  0
    4.1713   -0.7718    3.1811 C   0  0  0  0  0  0  0  0  0  0  0  0
    2.8919    0.0327    3.3788 C   0  0  1  0  0  0  0  0  0  0  0  0
    2.5799   -0.9298    4.5085 C   0  0  1  0  0  0  0  0  0  0  0  0
    2.6730    1.4861    3.6542 C   0  0  2  0  0  0  0  0  0  0  0  0
    3.3865    1.9376    4.8232 O   0  0  0  0  0  0  0  0  0  0  0  0
    2.4708    2.1273    5.8153 C   0  0  0  0  0  0  0  0  0  0  0  0
    2.6912    2.4238    7.1740 C   0  0  0  0  0  0  0  0  0  0  0  0
    3.9696    2.5954    7.6194 O   0  0  0  0  0  0  0  0  0  0  0  0
    1.6015    2.5308    8.0680 C   0  0  0  0  0  0  0  0  0  0  0  0
    0.2724    2.3085    7.6306 C   0  0  0  0  0  0  0  0  0  0  0  0
    0.0291    2.0147    6.2737 C   0  0  0  0  0  0  0  0  0  0  0  0
    1.1507    1.9749    5.4263 C   0  0  0  0  0  0  0  0  0  0  0  0
    1.1411    1.7387    3.9450 C   0  0  1  0  0  0  0  0  0  0  0  0
    0.8078    3.0661    3.2007 C   0  0  0  0  0  0  0  0  0  0  0  0
   -0.5732    3.6479    3.5199 C   0  0  0  0  0  0  0  0  0  0  0  0
   -1.6186    2.6131    3.3364 N   0  0  2  0  0  0  0  0  0  0  0  0
   -2.9849    3.1484    3.5758 C   0  0  0  0  0  0  0  0  0  0  0  0
   -3.6474    3.6150    2.2989 C   0  0  0  0  0  0  0  0  0  0  0  0
   -3.9805    5.0782    2.0793 C   0  0  0  0  0  0  0  0  0  0  0  0
   -5.0844    4.1089    2.3362 C   0  0  0  0  0  0  0  0  0  0  0  0
   -1.3166    1.3581    4.1001 C   0  0  2  0  0  0  0  0  0  0  0  0
   -1.3113    1.6358    5.6358 C   0  0  0  0  0  0  0  0  0  0  0  0
    0.0084    0.6668    3.6139 C   0  0  1  0  0  0  0  0  0  0  0  0
   -0.1375    0.4859    2.2101 O   0  0  0  0  0  0  0  0  0  0  0  0
    0.0152   -0.8121    4.2323 C   0  0  0  0  0  0  0  0  0  0  0  0
    0.1991   -4.0447    6.5360 H   0  0  0  0  0  0  0  0  0  0  0  0
    0.2587   -4.1912    4.7895 H   0  0  0  0  0  0  0  0  0  0  0  0
   -0.8443   -3.0410    5.5492 H   0  0  0  0  0  0  0  0  0  0  0  0
    1.9448   -3.6224    3.4568 H   0  0  0  0  0  0  0  0  0  0  0  0
    1.7549   -2.2679    2.2936 H   0  0  0  0  0  0  0  0  0  0  0  0
    3.9515   -2.6186    4.4662 H   0  0  0  0  0  0  0  0  0  0  0  0
    5.0010   -0.4317    3.8096 H   0  0  0  0  0  0  0  0  0  0  0  0
    4.4622   -0.8978    2.1386 H   0  0  0  0  0  0  0  0  0  0  0  0
    2.3154   -0.1920    2.4834 H   0  0  0  0  0  0  0  0  0  0  0  0
    2.9553   -0.6820    5.5050 H   0  0  0  0  0  0  0  0  0  0  0  0
    3.0157    2.0589    2.7907 H   0  0  0  0  0  0  0  0  0  0  0  0
    4.6026    2.4820    6.9265 H   0  0  0  0  0  0  0  0  0  0  0  0
    1.7882    2.7600    9.1015 H   0  0  0  0  0  0  0  0  0  0  0  0
   -0.5465    2.3489    8.3384 H   0  0  0  0  0  0  0  0  0  0  0  0
    1.5570    3.8363    3.4055 H   0  0  0  0  0  0  0  0  0  0  0  0
    0.8786    2.8832    2.1261 H   0  0  0  0  0  0  0  0  0  0  0  0
   -0.5771    4.0407    4.5388 H   0  0  0  0  0  0  0  0  0  0  0  0
   -0.7857    4.4940    2.8709 H   0  0  0  0  0  0  0  0  0  0  0  0
   -3.6374    2.3944    3.9950 H   0  0  0  0  0  0  0  0  0  0  0  0
   -2.9645    3.9529    4.3081 H   0  0  0  0  0  0  0  0  0  0  0  0
   -3.4395    2.9886    1.4308 H   0  0  0  0  0  0  0  0  0  0  0  0
   -3.7361    5.7702    2.8688 H   0  0  0  0  0  0  0  0  0  0  0  0
   -3.9308    5.5158    1.0912 H   0  0  0  0  0  0  0  0  0  0  0  0
   -5.7051    3.9072    1.4783 H   0  0  0  0  0  0  0  0  0  0  0  0
   -5.6258    4.1416    3.2701 H   0  0  0  0  0  0  0  0  0  0  0  0
   -2.1449    0.6846    3.8942 H   0  0  0  0  0  0  0  0  0  0  0  0
   -1.6445    0.7326    6.1445 H   0  0  0  0  0  0  0  0  0  0  0  0
   -2.0517    2.3881    5.9096 H   0  0  0  0  0  0  0  0  0  0  0  0
   -0.0700    1.3056    1.7397 H   0  0  0  0  0  0  0  0  0  0  0  0
   -0.7113   -1.4062    3.6857 H   0  0  0  0  0  0  0  0  0  0  0  0
   -0.4154   -0.7442    5.2283 H   0  0  0  0  0  0  0  0  0  0  0  0
   -1.6002    2.3523    2.3560 H   0  0  0  0  0  0  0  0  0  0  0  0
  1  2  1  0
  1 31  1  0
  1 32  1  0
  1 33  1  0
  3  2  1  1
  3  8  1  0
  3 30  1  0
  3  4  1  0
  4  5  1  0
  4 34  1  0
  4 35  1  0
  5  8  1  0
  5  6  1  0
  5 36  1  1
  6  7  1  0
  6 37  1  0
  6 38  1  0
  7  8  1  0
  7  9  1  0
  7 39  1  6
  8 40  1  1
  9 18  1  0
  9 10  1  0
  9 41  1  6
 10 11  1  0
 11 17  2  0
 11 12  1  0
 12 13  1  0
 12 14  2  0
 13 42  1  0
 14 15  1  0
 14 43  1  0
 15 16  2  0
 15 44  1  0
 16 27  1  0
 16 17  1  0
 17 18  1  0
 18 28  1  0
 18 19  1  6
 19 20  1  0
 19 45  1  0
 19 46  1  0
 20 21  1  0
 20 47  1  0
 20 48  1  0
 21 22  1  0
 21 26  1  0
 21 62  1  6
 22 23  1  0
 22 49  1  0
 22 50  1  0
 23 25  1  0
 23 24  1  0
 23 51  1  0
 24 25  1  0
 24 52  1  0
 24 53  1  0
 25 54  1  0
 25 55  1  0
 26 27  1  0
 26 28  1  0
 26 56  1  1
 27 57  1  0
 27 58  1  0
 28 29  1  6
 28 30  1  0
 29 59  1  0
 30 60  1  0
 30 61  1  0
M  CHG  1  21   1
M  END
>  <i_m_ct_stereo_status>  (132) 
1

>  <s_m_source_file>  (132) 
/var/tmp/pbs.5076255.sched01/tmp5eg4wc32/41mqp692j8.sdf

>  <i_m_source_file_index>  (132) 
18

>  <i_lp_mmshare_version>  (132) 
48012

>  <i_f3d_flags>  (132) 
0

>  <s_epik_input>  (132) 
W0NAXTEyM1tDQEBIXTRbQ0BASF01W0NASF02W0NAXShPW0NIM10pKFtDSDJdW0NASF02W0NIMl01KVtDSDJdW0NAQF0zKFtPSF0pW0NASF0oTihbQ0gyXVtDSDJdMilbQ0gyXVtDSF03W0NIMl1bQ0gyXTcpW0NIMl1jOGMxYyhPNCljKFtPSF0pW2NIXVtjSF04

>  <s_epik_cmdline>  (132) 
J2VwaWtfcHl0aG9uJywgJy1waHQnLCAnMi4wJywgJy1waCcsICc3LjAnLCAnLXRuJywgJzgnLCAnLW1hJywgJzIwMCcsICctaW1hZScsICc8aW5maWxlLm1hZT4nLCAnLW9tYWUnLCAnPG91dGZpbGUubWFlPic=

>  <r_lp_tautomer_probability>  (132) 
1

>  <r_epik_Ionization_Penalty>  (132) 
0.0326623

>  <r_epik_Ionization_Penalty_Charging>  (132) 
0.0241859

>  <r_epik_Ionization_Penalty_Neutral>  (132) 
0.00847643

>  <r_epik_State_Penalty>  (132) 
0.0258006

>  <r_epik_Charging_Adjusted_Penalty>  (132) 
0.0499865

>  <i_epik_Tot_Q>  (132) 
1

>  <i_epik_Tot_abs_Q>  (132) 
1

>  <s_lp_Force_Field>  (132) 
OPLS3e

>  <r_lp_Energy>  (132) 
112.464

>  <b_lp_Chiralities_Consistent>  (132) 
1

>  <s_lp_Variant>  (132) 
40:0-1

>  <s_i_glide_gridfile>  (132) 
pfpi4k_grid

>  <i_i_glide_lignum>  (132) 
18

>  <i_i_glide_rotatable_bonds>  (132) 
5

>  <r_i_docking_score>  (132) 
-1.82428

>  <r_i_glide_ligand_efficiency>  (132) 
-0.0608092

>  <r_i_glide_ligand_efficiency_sa>  (132) 
-0.188948

>  <r_i_glide_ligand_efficiency_ln>  (132) 
-0.414495

>  <r_i_glide_gscore>  (132) 
-1.82428

>  <r_i_glide_lipo>  (132) 
-0.290122

>  <r_i_glide_hbond>  (132) 
0

>  <r_i_glide_metal>  (132) 
-0

>  <r_i_glide_rewards>  (132) 
-0.610051

>  <r_i_glide_evdw>  (132) 
-14.8414

>  <r_i_glide_ecoul>  (132) 
-2.49144

>  <r_i_glide_erotb>  (132) 
0.233796

>  <r_i_glide_esite>  (132) 
-0.0421144

>  <r_i_glide_emodel>  (132) 
-19.7801

>  <r_i_glide_energy>  (132) 
-17.3328

>  <r_i_glide_einternal>  (132) 
1.07295

>  <r_i_glide_intrahb_reward>  (132) 
-0

>  <i_i_glide_confnum>  (132) 
1

>  <i_i_glide_posenum>  (132) 
13

>  <r_i_glide_eff_state_penalty>  (132) 
0

>  <ligand_id>  (132) 
40

>  <original_smiles>  (132) 
COC12CC3CC(C31)C1Oc3c(O)ccc4c3C13CCN(CC1CC1)C(C4)C3(O)C2

>  <smiles>  (132) 
[H]Oc1c([H])c([H])c2c3c1OC1([H])C4([H])C([H])([H])C5([H])C([H])([H])C(OC([H])([H])[H])(C([H])([H])C6(O[H])C31C([H])([H])C([H])([H])[N+]([H])(C([H])([H])C1([H])C([H])([H])C1([H])[H])C6([H])C2([H])[H])C54[H]

$$$$
40:0:2
     RDKit          3D

 62 69  0  0  1  0  0  0  0  0999 V2000
    0.6851   -4.0666    5.0998 C   0  0  0  0  0  0  0  0  0  0  0  0
    1.7736   -3.1599    4.9397 O   0  0  0  0  0  0  0  0  0  0  0  0
    1.6761   -2.2335    3.8513 C   0  0  2  0  0  0  0  0  0  0  0  0
    1.9778   -2.9904    2.5152 C   0  0  0  0  0  0  0  0  0  0  0  0
    3.4870   -2.6237    2.6347 C   0  0  1  0  0  0  0  0  0  0  0  0
    4.2209   -1.4153    1.9757 C   0  0  0  0  0  0  0  0  0  0  0  0
    3.1411   -0.5352    2.5965 C   0  0  1  0  0  0  0  0  0  0  0  0
    3.0240   -1.6059    3.6655 C   0  0  1  0  0  0  0  0  0  0  0  0
    3.1797    0.8766    3.0742 C   0  0  2  0  0  0  0  0  0  0  0  0
    4.2202    1.0803    4.0500 O   0  0  0  0  0  0  0  0  0  0  0  0
    3.6230    1.2458    5.2628 C   0  0  0  0  0  0  0  0  0  0  0  0
    4.2295    1.3441    6.5284 C   0  0  0  0  0  0  0  0  0  0  0  0
    5.5899    1.3350    6.6218 O   0  0  0  0  0  0  0  0  0  0  0  0
    3.4324    1.4349    7.6930 C   0  0  0  0  0  0  0  0  0  0  0  0
    2.0189    1.3869    7.6120 C   0  0  0  0  0  0  0  0  0  0  0  0
    1.3951    1.2917    6.3554 C   0  0  0  0  0  0  0  0  0  0  0  0
    2.2421    1.2700    5.2301 C   0  0  0  0  0  0  0  0  0  0  0  0
    1.8167    1.2325    3.7904 C   0  0  1  0  0  0  0  0  0  0  0  0
    1.4584    2.6747    3.3017 C   0  0  0  0  0  0  0  0  0  0  0  0
    0.3123    3.3296    4.0812 C   0  0  0  0  0  0  0  0  0  0  0  0
   -0.8567    2.4220    4.1152 N   0  0  2  0  0  0  0  0  0  0  0  0
   -2.0679    3.0288    4.7336 C   0  0  0  0  0  0  0  0  0  0  0  0
   -3.1398    3.3140    3.6974 C   0  0  0  0  0  0  0  0  0  0  0  0
   -2.9927    2.9126    2.2463 C   0  0  0  0  0  0  0  0  0  0  0  0
   -2.9275    4.3684    2.6284 C   0  0  0  0  0  0  0  0  0  0  0  0
   -0.5353    1.0460    4.5941 C   0  0  2  0  0  0  0  0  0  0  0  0
   -0.0967    1.1018    6.0823 C   0  0  0  0  0  0  0  0  0  0  0  0
    0.5191    0.3155    3.6788 C   0  0  1  0  0  0  0  0  0  0  0  0
   -0.0091    0.3405    2.3608 O   0  0  0  0  0  0  0  0  0  0  0  0
    0.5078   -1.2326    4.1067 C   0  0  0  0  0  0  0  0  0  0  0  0
    0.9045   -4.7494    5.9211 H   0  0  0  0  0  0  0  0  0  0  0  0
    0.5080   -4.6777    4.2155 H   0  0  0  0  0  0  0  0  0  0  0  0
   -0.2406   -3.5501    5.3490 H   0  0  0  0  0  0  0  0  0  0  0  0
    1.8193   -4.0679    2.5427 H   0  0  0  0  0  0  0  0  0  0  0  0
    1.5080   -2.5495    1.6365 H   0  0  0  0  0  0  0  0  0  0  0  0
    4.1288   -3.3948    3.0671 H   0  0  0  0  0  0  0  0  0  0  0  0
    5.2202   -1.2314    2.3818 H   0  0  0  0  0  0  0  0  0  0  0  0
    4.2121   -1.4307    0.8860 H   0  0  0  0  0  0  0  0  0  0  0  0
    2.3273   -0.5840    1.8710 H   0  0  0  0  0  0  0  0  0  0  0  0
    3.6691   -1.5164    4.5458 H   0  0  0  0  0  0  0  0  0  0  0  0
    3.3657    1.5254    2.2162 H   0  0  0  0  0  0  0  0  0  0  0  0
    6.0018    1.2216    5.7789 H   0  0  0  0  0  0  0  0  0  0  0  0
    3.9060    1.5059    8.6560 H   0  0  0  0  0  0  0  0  0  0  0  0
    1.4210    1.4023    8.5133 H   0  0  0  0  0  0  0  0  0  0  0  0
    2.3297    3.3329    3.3626 H   0  0  0  0  0  0  0  0  0  0  0  0
    1.1986    2.6519    2.2380 H   0  0  0  0  0  0  0  0  0  0  0  0
    0.6371    3.5955    5.0892 H   0  0  0  0  0  0  0  0  0  0  0  0
    0.0376    4.2626    3.5853 H   0  0  0  0  0  0  0  0  0  0  0  0
   -2.5167    2.3722    5.4811 H   0  0  0  0  0  0  0  0  0  0  0  0
   -1.8338    3.9562    5.2586 H   0  0  0  0  0  0  0  0  0  0  0  0
   -4.1475    3.2518    4.1058 H   0  0  0  0  0  0  0  0  0  0  0  0
   -2.0779    2.3837    1.9870 H   0  0  0  0  0  0  0  0  0  0  0  0
   -3.8879    2.5654    1.7272 H   0  0  0  0  0  0  0  0  0  0  0  0
   -3.7792    4.9757    2.3200 H   0  0  0  0  0  0  0  0  0  0  0  0
   -1.9625    4.8748    2.5979 H   0  0  0  0  0  0  0  0  0  0  0  0
   -1.4743    0.4944    4.5280 H   0  0  0  0  0  0  0  0  0  0  0  0
   -0.3918    0.1756    6.5744 H   0  0  0  0  0  0  0  0  0  0  0  0
   -0.6279    1.8856    6.6259 H   0  0  0  0  0  0  0  0  0  0  0  0
    0.1520    1.1733    1.9379 H   0  0  0  0  0  0  0  0  0  0  0  0
   -0.4068   -1.6812    3.7248 H   0  0  0  0  0  0  0  0  0  0  0  0
    0.3663   -1.2589    5.1825 H   0  0  0  0  0  0  0  0  0  0  0  0
   -1.1213    2.2986    3.1485 H   0  0  0  0  0  0  0  0  0  0  0  0
  1  2  1  0
  1 31  1  0
  1 32  1  0
  1 33  1  0
  3  2  1  1
  3  8  1  0
  3 30  1  0
  3  4  1  0
  4  5  1  0
  4 34  1  0
  4 35  1  0
  5  8  1  0
  5  6  1  0
  5 36  1  1
  6  7  1  0
  6 37  1  0
  6 38  1  0
  7  8  1  0
  7  9  1  0
  7 39  1  6
  8 40  1  1
  9 18  1  0
  9 10  1  0
  9 41  1  6
 10 11  1  0
 11 17  2  0
 11 12  1  0
 12 13  1  0
 12 14  2  0
 13 42  1  0
 14 15  1  0
 14 43  1  0
 15 16  2  0
 15 44  1  0
 16 27  1  0
 16 17  1  0
 17 18  1  0
 18 28  1  0
 18 19  1  6
 19 20  1  0
 19 45  1  0
 19 46  1  0
 20 21  1  0
 20 47  1  0
 20 48  1  0
 21 22  1  0
 21 26  1  0
 21 62  1  6
 22 23  1  0
 22 49  1  0
 22 50  1  0
 23 25  1  0
 23 24  1  0
 23 51  1  0
 24 25  1  0
 24 52  1  0
 24 53  1  0
 25 54  1  0
 25 55  1  0
 26 27  1  0
 26 28  1  0
 26 56  1  1
 27 57  1  0
 27 58  1  0
 28 29  1  6
 28 30  1  0
 29 59  1  0
 30 60  1  0
 30 61  1  0
M  CHG  1  21   1
M  END
>  <i_m_ct_stereo_status>  (133) 
1

>  <s_m_source_file>  (133) 
/var/tmp/pbs.5076255.sched01/tmp5eg4wc32/41mqp692j8.sdf

>  <i_m_source_file_index>  (133) 
18

>  <i_lp_mmshare_version>  (133) 
48012

>  <i_f3d_flags>  (133) 
0

>  <s_epik_input>  (133) 
W0NAXTEyM1tDQEBIXTRbQ0BASF01W0NASF02W0NAXShPW0NIM10pKFtDSDJdW0NASF02W0NIMl01KVtDSDJdW0NAQF0zKFtPSF0pW0NASF0oTihbQ0gyXVtDSDJdMilbQ0gyXVtDSF03W0NIMl1bQ0gyXTcpW0NIMl1jOGMxYyhPNCljKFtPSF0pW2NIXVtjSF04

>  <s_epik_cmdline>  (133) 
J2VwaWtfcHl0aG9uJywgJy1waHQnLCAnMi4wJywgJy1waCcsICc3LjAnLCAnLXRuJywgJzgnLCAnLW1hJywgJzIwMCcsICctaW1hZScsICc8aW5maWxlLm1hZT4nLCAnLW9tYWUnLCAnPG91dGZpbGUubWFlPic=

>  <r_lp_tautomer_probability>  (133) 
1

>  <r_epik_Ionization_Penalty>  (133) 
0.0326623

>  <r_epik_Ionization_Penalty_Charging>  (133) 
0.0241859

>  <r_epik_Ionization_Penalty_Neutral>  (133) 
0.00847643

>  <r_epik_State_Penalty>  (133) 
0.0258006

>  <r_epik_Charging_Adjusted_Penalty>  (133) 
0.0499865

>  <i_epik_Tot_Q>  (133) 
1

>  <i_epik_Tot_abs_Q>  (133) 
1

>  <s_lp_Force_Field>  (133) 
OPLS3e

>  <r_lp_Energy>  (133) 
112.464

>  <b_lp_Chiralities_Consistent>  (133) 
1

>  <s_lp_Variant>  (133) 
40:0-1

>  <s_i_glide_gridfile>  (133) 
pfpi4k_grid

>  <i_i_glide_lignum>  (133) 
18

>  <i_i_glide_rotatable_bonds>  (133) 
5

>  <r_i_docking_score>  (133) 
-1.58054

>  <r_i_glide_ligand_efficiency>  (133) 
-0.0526846

>  <r_i_glide_ligand_efficiency_sa>  (133) 
-0.163703

>  <r_i_glide_ligand_efficiency_ln>  (133) 
-0.359115

>  <r_i_glide_gscore>  (133) 
-1.58054

>  <r_i_glide_lipo>  (133) 
-0.0638805

>  <r_i_glide_hbond>  (133) 
0

>  <r_i_glide_metal>  (133) 
-0

>  <r_i_glide_rewards>  (133) 
-0.610051

>  <r_i_glide_evdw>  (133) 
-17.3245

>  <r_i_glide_ecoul>  (133) 
-1.63634

>  <r_i_glide_erotb>  (133) 
0.233796

>  <r_i_glide_esite>  (133) 
-0.0287281

>  <r_i_glide_emodel>  (133) 
-15.9287

>  <r_i_glide_energy>  (133) 
-18.9608

>  <r_i_glide_einternal>  (133) 
10.8477

>  <r_i_glide_intrahb_reward>  (133) 
-0

>  <i_i_glide_confnum>  (133) 
1

>  <i_i_glide_posenum>  (133) 
35

>  <r_i_glide_eff_state_penalty>  (133) 
0

>  <ligand_id>  (133) 
40

>  <original_smiles>  (133) 
COC12CC3CC(C31)C1Oc3c(O)ccc4c3C13CCN(CC1CC1)C(C4)C3(O)C2

>  <smiles>  (133) 
[H]Oc1c([H])c([H])c2c3c1OC1([H])C4([H])C([H])([H])C5([H])C([H])([H])C(OC([H])([H])[H])(C([H])([H])C6(O[H])C31C([H])([H])C([H])([H])[N+]([H])(C([H])([H])C1([H])C([H])([H])C1([H])[H])C6([H])C2([H])[H])C54[H]

$$$$
40:1:0
     RDKit          3D

 61 68  0  0  1  0  0  0  0  0999 V2000
    0.5382   -7.5577    5.6111 C   0  0  0  0  0  0  0  0  0  0  0  0
    0.7714   -6.5421    4.6176 O   0  0  0  0  0  0  0  0  0  0  0  0
    1.2061   -6.8728    3.2713 C   0  0  2  0  0  0  0  0  0  0  0  0
    0.3185   -7.9877    2.6116 C   0  0  0  0  0  0  0  0  0  0  0  0
    1.3686   -9.0722    3.0466 C   0  0  1  0  0  0  0  0  0  0  0  0
    2.5443   -9.6677    2.2184 C   0  0  0  0  0  0  0  0  0  0  0  0
    2.9220   -8.2358    1.8844 C   0  0  1  0  0  0  0  0  0  0  0  0
    2.3138   -7.8984    3.2490 C   0  0  1  0  0  0  0  0  0  0  0  0
    4.2517   -7.6195    1.5768 C   0  0  2  0  0  0  0  0  0  0  0  0
    5.2588   -7.8443    2.5970 O   0  0  0  0  0  0  0  0  0  0  0  0
    5.4223   -6.6893    3.3021 C   0  0  0  0  0  0  0  0  0  0  0  0
    6.1511   -6.4594    4.4759 C   0  0  0  0  0  0  0  0  0  0  0  0
    6.8516   -7.4989    5.0293 O   0  0  0  0  0  0  0  0  0  0  0  0
    6.1599   -5.1797    5.0789 C   0  0  0  0  0  0  0  0  0  0  0  0
    5.4108   -4.1228    4.5227 C   0  0  0  0  0  0  0  0  0  0  0  0
    4.6792   -4.3188    3.3364 C   0  0  0  0  0  0  0  0  0  0  0  0
    4.7394   -5.6022    2.7561 C   0  0  0  0  0  0  0  0  0  0  0  0
    4.0754   -6.0541    1.4930 C   0  0  1  0  0  0  0  0  0  0  0  0
    4.9131   -5.6365    0.2493 C   0  0  0  0  0  0  0  0  0  0  0  0
    5.1200   -4.1297    0.1342 C   0  0  0  0  0  0  0  0  0  0  0  0
    3.8684   -3.3804    0.2132 N   0  0  0  0  0  0  0  0  0  0  0  0
    3.1607   -3.2000   -1.0574 C   0  0  0  0  0  0  0  0  0  0  0  0
    3.9473   -2.4155   -2.0896 C   0  0  0  0  0  0  0  0  0  0  0  0
    3.4441   -2.3468   -3.5178 C   0  0  0  0  0  0  0  0  0  0  0  0
    4.6814   -3.1480   -3.1925 C   0  0  0  0  0  0  0  0  0  0  0  0
    3.0381   -3.7914    1.3648 C   0  0  2  0  0  0  0  0  0  0  0  0
    3.7485   -3.3206    2.6477 C   0  0  0  0  0  0  0  0  0  0  0  0
    2.6562   -5.3279    1.4329 C   0  0  1  0  0  0  0  0  0  0  0  0
    1.9654   -5.6652    0.2423 O   0  0  0  0  0  0  0  0  0  0  0  0
    1.5509   -5.5064    2.5888 C   0  0  0  0  0  0  0  0  0  0  0  0
    0.2898   -7.1140    6.5771 H   0  0  0  0  0  0  0  0  0  0  0  0
    1.4163   -8.1874    5.7652 H   0  0  0  0  0  0  0  0  0  0  0  0
   -0.3023   -8.1978    5.3427 H   0  0  0  0  0  0  0  0  0  0  0  0
   -0.6455   -8.0989    3.1036 H   0  0  0  0  0  0  0  0  0  0  0  0
    0.1701   -7.8971    1.5240 H   0  0  0  0  0  0  0  0  0  0  0  0
    1.1727   -9.6311    3.9638 H   0  0  0  0  0  0  0  0  0  0  0  0
    3.2583  -10.2060    2.8570 H   0  0  0  0  0  0  0  0  0  0  0  0
    2.2484  -10.2453    1.3457 H   0  0  0  0  0  0  0  0  0  0  0  0
    2.2742   -7.9882    1.0305 H   0  0  0  0  0  0  0  0  0  0  0  0
    2.9740   -7.9808    4.1243 H   0  0  0  0  0  0  0  0  0  0  0  0
    4.6059   -8.0216    0.6191 H   0  0  0  0  0  0  0  0  0  0  0  0
    6.7304   -8.2982    4.5423 H   0  0  0  0  0  0  0  0  0  0  0  0
    6.7510   -5.0398    5.9697 H   0  0  0  0  0  0  0  0  0  0  0  0
    5.4089   -3.1570    5.0255 H   0  0  0  0  0  0  0  0  0  0  0  0
    5.8941   -6.1133    0.2694 H   0  0  0  0  0  0  0  0  0  0  0  0
    4.4234   -5.9961   -0.6556 H   0  0  0  0  0  0  0  0  0  0  0  0
    5.7841   -3.8034    0.9360 H   0  0  0  0  0  0  0  0  0  0  0  0
    5.6501   -3.9095   -0.7896 H   0  0  0  0  0  0  0  0  0  0  0  0
    2.8698   -4.1542   -1.4997 H   0  0  0  0  0  0  0  0  0  0  0  0
    2.2420   -2.6386   -0.8745 H   0  0  0  0  0  0  0  0  0  0  0  0
    4.4004   -1.4943   -1.7109 H   0  0  0  0  0  0  0  0  0  0  0  0
    2.5187   -2.8821   -3.7433 H   0  0  0  0  0  0  0  0  0  0  0  0
    3.5781   -1.3997   -4.0442 H   0  0  0  0  0  0  0  0  0  0  0  0
    5.6501   -2.7421   -3.4837 H   0  0  0  0  0  0  0  0  0  0  0  0
    4.6150   -4.2396   -3.1833 H   0  0  0  0  0  0  0  0  0  0  0  0
    2.1120   -3.2167    1.3066 H   0  0  0  0  0  0  0  0  0  0  0  0
    2.9880   -3.0616    3.3803 H   0  0  0  0  0  0  0  0  0  0  0  0
    4.2953   -2.3979    2.4329 H   0  0  0  0  0  0  0  0  0  0  0  0
    2.5662   -5.5670   -0.4882 H   0  0  0  0  0  0  0  0  0  0  0  0
    0.6135   -5.0871    2.2336 H   0  0  0  0  0  0  0  0  0  0  0  0
    1.8086   -4.8360    3.4042 H   0  0  0  0  0  0  0  0  0  0  0  0
  1  2  1  0
  1 31  1  0
  1 32  1  0
  1 33  1  0
  3  2  1  1
  3  8  1  0
  3 30  1  0
  3  4  1  0
  4  5  1  0
  4 34  1  0
  4 35  1  0
  5  8  1  0
  5  6  1  0
  5 36  1  1
  6  7  1  0
  6 37  1  0
  6 38  1  0
  7  8  1  0
  7  9  1  0
  7 39  1  6
  8 40  1  1
  9 18  1  0
  9 10  1  0
  9 41  1  6
 10 11  1  0
 11 17  2  0
 11 12  1  0
 12 13  1  0
 12 14  2  0
 13 42  1  0
 14 15  1  0
 14 43  1  0
 15 16  2  0
 15 44  1  0
 16 27  1  0
 16 17  1  0
 17 18  1  0
 18 28  1  0
 18 19  1  6
 19 20  1  0
 19 45  1  0
 19 46  1  0
 20 21  1  0
 20 47  1  0
 20 48  1  0
 21 22  1  0
 21 26  1  0
 22 23  1  0
 22 49  1  0
 22 50  1  0
 23 25  1  0
 23 24  1  0
 23 51  1  0
 24 25  1  0
 24 52  1  0
 24 53  1  0
 25 54  1  0
 25 55  1  0
 26 27  1  0
 26 28  1  0
 26 56  1  6
 27 57  1  0
 27 58  1  0
 28 29  1  6
 28 30  1  0
 29 59  1  0
 30 60  1  0
 30 61  1  0
M  END
>  <i_m_ct_stereo_status>  (134) 
1

>  <s_m_source_file>  (134) 
/var/tmp/pbs.5076255.sched01/tmp5eg4wc32/41mqp692j8.sdf

>  <i_m_source_file_index>  (134) 
19

>  <i_lp_mmshare_version>  (134) 
48012

>  <i_f3d_flags>  (134) 
0

>  <s_epik_input>  (134) 
W0NAXTEyM1tDQEBIXTRbQ0BASF01W0NASF02W0NAXShPW0NIM10pKFtDSDJdW0NASF02W0NIMl01KVtDSDJdW0NAQF0zKFtPSF0pW0NASF0oTihbQ0gyXVtDSDJdMilbQ0gyXVtDSF03W0NIMl1bQ0gyXTcpW0NIMl1jOGMxYyhPNCljKFtPSF0pW2NIXVtjSF04

>  <s_epik_cmdline>  (134) 
J2VwaWtfcHl0aG9uJywgJy1waHQnLCAnMi4wJywgJy1waCcsICc3LjAnLCAnLXRuJywgJzgnLCAnLW1hJywgJzIwMCcsICctaW1hZScsICc8aW5maWxlLm1hZT4nLCAnLW9tYWUnLCAnPG91dGZpbGUubWFlPic=

>  <r_lp_tautomer_probability>  (134) 
1

>  <r_epik_Ionization_Penalty>  (134) 
1.90768

>  <r_epik_Ionization_Penalty_Charging>  (134) 
0

>  <r_epik_Ionization_Penalty_Neutral>  (134) 
1.90768

>  <r_epik_State_Penalty>  (134) 
2.03508

>  <r_epik_Charging_Adjusted_Penalty>  (134) 
2.03508

>  <i_epik_Tot_Q>  (134) 
0

>  <i_epik_Tot_abs_Q>  (134) 
0

>  <s_lp_Force_Field>  (134) 
OPLS3e

>  <r_lp_Energy>  (134) 
119.25

>  <b_lp_Chiralities_Consistent>  (134) 
1

>  <s_lp_Variant>  (134) 
40:0-2

>  <s_i_glide_gridfile>  (134) 
pfpi4k_grid

>  <i_i_glide_lignum>  (134) 
19

>  <i_i_glide_rotatable_bonds>  (134) 
5

>  <r_i_docking_score>  (134) 
-3.04668

>  <r_i_glide_ligand_efficiency>  (134) 
-0.101556

>  <r_i_glide_ligand_efficiency_sa>  (134) 
-0.315558

>  <r_i_glide_ligand_efficiency_ln>  (134) 
-0.692239

>  <r_i_glide_gscore>  (134) 
-3.04668

>  <r_i_glide_lipo>  (134) 
-0.660439

>  <r_i_glide_hbond>  (134) 
-0.195206

>  <r_i_glide_metal>  (134) 
-0

>  <r_i_glide_rewards>  (134) 
-0.616923

>  <r_i_glide_evdw>  (134) 
-22.1598

>  <r_i_glide_ecoul>  (134) 
-4.67307

>  <r_i_glide_erotb>  (134) 
0.234835

>  <r_i_glide_esite>  (134) 
0

>  <r_i_glide_emodel>  (134) 
-28.2586

>  <r_i_glide_energy>  (134) 
-26.8328

>  <r_i_glide_einternal>  (134) 
6.73769

>  <r_i_glide_intrahb_reward>  (134) 
-0

>  <i_i_glide_confnum>  (134) 
5

>  <i_i_glide_posenum>  (134) 
13

>  <r_i_glide_eff_state_penalty>  (134) 
0

>  <ligand_id>  (134) 
40

>  <original_smiles>  (134) 
COC12CC3CC(C31)C1Oc3c(O)ccc4c3C13CCN(CC1CC1)C(C4)C3(O)C2

>  <smiles>  (134) 
[H]Oc1c([H])c([H])c2c3c1OC1([H])C4([H])C([H])([H])C5([H])C([H])([H])C(OC([H])([H])[H])(C([H])([H])C6(O[H])C([H])(N(C([H])([H])C7([H])C([H])([H])C7([H])[H])C([H])([H])C([H])([H])C316)C2([H])[H])C54[H]

$$$$
40:1:1
     RDKit          3D

 61 68  0  0  1  0  0  0  0  0999 V2000
    1.7285   -6.0878    5.7098 C   0  0  0  0  0  0  0  0  0  0  0  0
    0.7362   -6.4935    4.7583 O   0  0  0  0  0  0  0  0  0  0  0  0
    1.1664   -6.8143    3.4292 C   0  0  2  0  0  0  0  0  0  0  0  0
    0.1900   -7.9209    2.8890 C   0  0  0  0  0  0  0  0  0  0  0  0
    1.1956   -9.0302    3.3284 C   0  0  1  0  0  0  0  0  0  0  0  0
    2.3095   -9.7131    2.4650 C   0  0  0  0  0  0  0  0  0  0  0  0
    2.7418   -8.3124    2.0573 C   0  0  1  0  0  0  0  0  0  0  0  0
    2.2103   -7.9012    3.4146 C   0  0  1  0  0  0  0  0  0  0  0  0
    4.0872   -7.7455    1.7094 C   0  0  2  0  0  0  0  0  0  0  0  0
    5.0900   -7.9942    2.7188 O   0  0  0  0  0  0  0  0  0  0  0  0
    5.3213   -6.8272    3.3861 C   0  0  0  0  0  0  0  0  0  0  0  0
    6.0839   -6.6006    4.5515 C   0  0  0  0  0  0  0  0  0  0  0  0
    6.7523   -7.6474    5.1245 O   0  0  0  0  0  0  0  0  0  0  0  0
    6.1378   -5.3155    5.1265 C   0  0  0  0  0  0  0  0  0  0  0  0
    5.4060   -4.2383    4.5717 C   0  0  0  0  0  0  0  0  0  0  0  0
    4.6570   -4.4327    3.4015 C   0  0  0  0  0  0  0  0  0  0  0  0
    4.6765   -5.7312    2.8379 C   0  0  0  0  0  0  0  0  0  0  0  0
    3.9751   -6.1741    1.5832 C   0  0  1  0  0  0  0  0  0  0  0  0
    4.8095   -5.8051    0.3244 C   0  0  0  0  0  0  0  0  0  0  0  0
    5.0663   -4.3062    0.1867 C   0  0  0  0  0  0  0  0  0  0  0  0
    3.8460   -3.5039    0.2756 N   0  0  0  0  0  0  0  0  0  0  0  0
    3.1248   -3.3104   -0.9823 C   0  0  0  0  0  0  0  0  0  0  0  0
    3.9245   -2.5858   -2.0426 C   0  0  0  0  0  0  0  0  0  0  0  0
    3.4462   -2.6057   -3.4761 C   0  0  0  0  0  0  0  0  0  0  0  0
    4.6865   -3.3715   -3.0851 C   0  0  0  0  0  0  0  0  0  0  0  0
    3.0161   -3.8747    1.4295 C   0  0  2  0  0  0  0  0  0  0  0  0
    3.7558   -3.4128    2.7086 C   0  0  0  0  0  0  0  0  0  0  0  0
    2.5879   -5.3964    1.5105 C   0  0  1  0  0  0  0  0  0  0  0  0
    1.8724   -5.7447    0.3347 O   0  0  0  0  0  0  0  0  0  0  0  0
    1.4888   -5.4978    2.6641 C   0  0  0  0  0  0  0  0  0  0  0  0
    1.2324   -5.7539    6.6208 H   0  0  0  0  0  0  0  0  0  0  0  0
    2.3426   -5.2616    5.3554 H   0  0  0  0  0  0  0  0  0  0  0  0
    2.3916   -6.9088    5.9782 H   0  0  0  0  0  0  0  0  0  0  0  0
   -0.7635   -7.9894    3.4250 H   0  0  0  0  0  0  0  0  0  0  0  0
    0.0099   -7.9165    1.8071 H   0  0  0  0  0  0  0  0  0  0  0  0
    1.0037   -9.4723    4.3028 H   0  0  0  0  0  0  0  0  0  0  0  0
    3.0447  -10.2590    3.0695 H   0  0  0  0  0  0  0  0  0  0  0  0
    1.9235  -10.2780    1.6207 H   0  0  0  0  0  0  0  0  0  0  0  0
    2.0708   -8.0658    1.2221 H   0  0  0  0  0  0  0  0  0  0  0  0
    2.9129   -8.0103    4.2403 H   0  0  0  0  0  0  0  0  0  0  0  0
    4.4224   -8.1996    0.7678 H   0  0  0  0  0  0  0  0  0  0  0  0
    7.2206   -7.3932    5.9047 H   0  0  0  0  0  0  0  0  0  0  0  0
    6.7409   -5.1477    6.0099 H   0  0  0  0  0  0  0  0  0  0  0  0
    5.4422   -3.2609    5.0469 H   0  0  0  0  0  0  0  0  0  0  0  0
    5.7719   -6.3144    0.3303 H   0  0  0  0  0  0  0  0  0  0  0  0
    4.2995   -6.1596   -0.5686 H   0  0  0  0  0  0  0  0  0  0  0  0
    5.7569   -3.9992    0.9732 H   0  0  0  0  0  0  0  0  0  0  0  0
    5.5974   -4.1098   -0.7408 H   0  0  0  0  0  0  0  0  0  0  0  0
    2.7918   -4.2518   -1.3971 H   0  0  0  0  0  0  0  0  0  0  0  0
    2.2323   -2.7083   -0.7959 H   0  0  0  0  0  0  0  0  0  0  0  0
    4.3677   -1.6489   -1.7014 H   0  0  0  0  0  0  0  0  0  0  0  0
    2.5386   -3.1732   -3.6864 H   0  0  0  0  0  0  0  0  0  0  0  0
    3.5797   -1.6958   -4.0620 H   0  0  0  0  0  0  0  0  0  0  0  0
    5.6558   -2.9739   -3.3849 H   0  0  0  0  0  0  0  0  0  0  0  0
    4.6260   -4.4565   -3.0173 H   0  0  0  0  0  0  0  0  0  0  0  0
    2.1055   -3.2720    1.3773 H   0  0  0  0  0  0  0  0  0  0  0  0
    3.0219   -3.0944    3.4498 H   0  0  0  0  0  0  0  0  0  0  0  0
    4.3363   -2.5134    2.4898 H   0  0  0  0  0  0  0  0  0  0  0  0
    2.4681   -5.6616   -0.4022 H   0  0  0  0  0  0  0  0  0  0  0  0
    0.5527   -5.0934    2.2913 H   0  0  0  0  0  0  0  0  0  0  0  0
    1.7356   -4.7548    3.4072 H   0  0  0  0  0  0  0  0  0  0  0  0
  1  2  1  0
  1 31  1  0
  1 32  1  0
  1 33  1  0
  3  2  1  1
  3  8  1  0
  3 30  1  0
  3  4  1  0
  4  5  1  0
  4 34  1  0
  4 35  1  0
  5  8  1  0
  5  6  1  0
  5 36  1  1
  6  7  1  0
  6 37  1  0
  6 38  1  0
  7  8  1  0
  7  9  1  0
  7 39  1  6
  8 40  1  1
  9 18  1  0
  9 10  1  0
  9 41  1  6
 10 11  1  0
 11 17  2  0
 11 12  1  0
 12 13  1  0
 12 14  2  0
 13 42  1  0
 14 15  1  0
 14 43  1  0
 15 16  2  0
 15 44  1  0
 16 27  1  0
 16 17  1  0
 17 18  1  0
 18 28  1  0
 18 19  1  6
 19 20  1  0
 19 45  1  0
 19 46  1  0
 20 21  1  0
 20 47  1  0
 20 48  1  0
 21 22  1  0
 21 26  1  0
 22 23  1  0
 22 49  1  0
 22 50  1  0
 23 25  1  0
 23 24  1  0
 23 51  1  0
 24 25  1  0
 24 52  1  0
 24 53  1  0
 25 54  1  0
 25 55  1  0
 26 27  1  0
 26 28  1  0
 26 56  1  6
 27 57  1  0
 27 58  1  0
 28 29  1  6
 28 30  1  0
 29 59  1  0
 30 60  1  0
 30 61  1  0
M  END
>  <i_m_ct_stereo_status>  (135) 
1

>  <s_m_source_file>  (135) 
/var/tmp/pbs.5076255.sched01/tmp5eg4wc32/41mqp692j8.sdf

>  <i_m_source_file_index>  (135) 
19

>  <i_lp_mmshare_version>  (135) 
48012

>  <i_f3d_flags>  (135) 
0

>  <s_epik_input>  (135) 
W0NAXTEyM1tDQEBIXTRbQ0BASF01W0NASF02W0NAXShPW0NIM10pKFtDSDJdW0NASF02W0NIMl01KVtDSDJdW0NAQF0zKFtPSF0pW0NASF0oTihbQ0gyXVtDSDJdMilbQ0gyXVtDSF03W0NIMl1bQ0gyXTcpW0NIMl1jOGMxYyhPNCljKFtPSF0pW2NIXVtjSF04

>  <s_epik_cmdline>  (135) 
J2VwaWtfcHl0aG9uJywgJy1waHQnLCAnMi4wJywgJy1waCcsICc3LjAnLCAnLXRuJywgJzgnLCAnLW1hJywgJzIwMCcsICctaW1hZScsICc8aW5maWxlLm1hZT4nLCAnLW9tYWUnLCAnPG91dGZpbGUubWFlPic=

>  <r_lp_tautomer_probability>  (135) 
1

>  <r_epik_Ionization_Penalty>  (135) 
1.90768

>  <r_epik_Ionization_Penalty_Charging>  (135) 
0

>  <r_epik_Ionization_Penalty_Neutral>  (135) 
1.90768

>  <r_epik_State_Penalty>  (135) 
2.03508

>  <r_epik_Charging_Adjusted_Penalty>  (135) 
2.03508

>  <i_epik_Tot_Q>  (135) 
0

>  <i_epik_Tot_abs_Q>  (135) 
0

>  <s_lp_Force_Field>  (135) 
OPLS3e

>  <r_lp_Energy>  (135) 
119.25

>  <b_lp_Chiralities_Consistent>  (135) 
1

>  <s_lp_Variant>  (135) 
40:0-2

>  <s_i_glide_gridfile>  (135) 
pfpi4k_grid

>  <i_i_glide_lignum>  (135) 
19

>  <i_i_glide_rotatable_bonds>  (135) 
5

>  <r_i_docking_score>  (135) 
-2.97917

>  <r_i_glide_ligand_efficiency>  (135) 
-0.0993057

>  <r_i_glide_ligand_efficiency_sa>  (135) 
-0.308566

>  <r_i_glide_ligand_efficiency_ln>  (135) 
-0.6769

>  <r_i_glide_gscore>  (135) 
-2.97917

>  <r_i_glide_lipo>  (135) 
-0.693214

>  <r_i_glide_hbond>  (135) 
-0.172301

>  <r_i_glide_metal>  (135) 
-0

>  <r_i_glide_rewards>  (135) 
-0.616923

>  <r_i_glide_evdw>  (135) 
-21.3786

>  <r_i_glide_ecoul>  (135) 
-4.4176

>  <r_i_glide_erotb>  (135) 
0.234835

>  <r_i_glide_esite>  (135) 
0

>  <r_i_glide_emodel>  (135) 
-28.0431

>  <r_i_glide_energy>  (135) 
-25.7962

>  <r_i_glide_einternal>  (135) 
4.97877

>  <r_i_glide_intrahb_reward>  (135) 
-0

>  <i_i_glide_confnum>  (135) 
5

>  <i_i_glide_posenum>  (135) 
36

>  <r_i_glide_eff_state_penalty>  (135) 
0

>  <ligand_id>  (135) 
40

>  <original_smiles>  (135) 
COC12CC3CC(C31)C1Oc3c(O)ccc4c3C13CCN(CC1CC1)C(C4)C3(O)C2

>  <smiles>  (135) 
[H]Oc1c([H])c([H])c2c3c1OC1([H])C4([H])C([H])([H])C5([H])C([H])([H])C(OC([H])([H])[H])(C([H])([H])C6(O[H])C([H])(N(C([H])([H])C7([H])C([H])([H])C7([H])[H])C([H])([H])C([H])([H])C316)C2([H])[H])C54[H]

$$$$
40:1:2
     RDKit          3D

 61 68  0  0  1  0  0  0  0  0999 V2000
   -0.5734   -5.9014    5.6777 C   0  0  0  0  0  0  0  0  0  0  0  0
    0.5104   -6.7674    5.3458 O   0  0  0  0  0  0  0  0  0  0  0  0
    0.7305   -7.0010    3.9506 C   0  0  2  0  0  0  0  0  0  0  0  0
   -0.3682   -8.0109    3.4476 C   0  0  0  0  0  0  0  0  0  0  0  0
    0.5776   -9.2098    3.7533 C   0  0  1  0  0  0  0  0  0  0  0  0
    1.5336   -9.9467    2.7863 C   0  0  0  0  0  0  0  0  0  0  0  0
    2.1108   -8.5769    2.4276 C   0  0  1  0  0  0  0  0  0  0  0  0
    1.6668   -8.1578    3.8206 C   0  0  1  0  0  0  0  0  0  0  0  0
    3.4364   -8.1335    1.9566 C   0  0  2  0  0  0  0  0  0  0  0  0
    4.4980   -8.5506    2.8464 O   0  0  0  0  0  0  0  0  0  0  0  0
    4.9055   -7.4588    3.5225 C   0  0  0  0  0  0  0  0  0  0  0  0
    5.7983   -7.3722    4.6291 C   0  0  0  0  0  0  0  0  0  0  0  0
    6.3873   -8.5184    5.0853 O   0  0  0  0  0  0  0  0  0  0  0  0
    6.0597   -6.1277    5.2532 C   0  0  0  0  0  0  0  0  0  0  0  0
    5.4090   -4.9466    4.8231 C   0  0  0  0  0  0  0  0  0  0  0  0
    4.5226   -4.9871    3.7296 C   0  0  0  0  0  0  0  0  0  0  0  0
    4.3555   -6.2520    3.1146 C   0  0  0  0  0  0  0  0  0  0  0  0
    3.4936   -6.5446    1.9159 C   0  0  1  0  0  0  0  0  0  0  0  0
    4.2466   -6.1980    0.5857 C   0  0  0  0  0  0  0  0  0  0  0  0
    4.6429   -4.7173    0.5046 C   0  0  0  0  0  0  0  0  0  0  0  0
    3.5294   -3.8107    0.7472 N   0  0  0  0  0  0  0  0  0  0  0  0
    2.7295   -3.4818   -0.4194 C   0  0  0  0  0  0  0  0  0  0  0  0
    3.4372   -2.5867   -1.4062 C   0  0  0  0  0  0  0  0  0  0  0  0
    2.9129   -2.4560   -2.8177 C   0  0  0  0  0  0  0  0  0  0  0  0
    4.2264   -3.1515   -2.5651 C   0  0  0  0  0  0  0  0  0  0  0  0
    2.7648   -4.1729    1.9602 C   0  0  2  0  0  0  0  0  0  0  0  0
    3.6645   -3.8621    3.1701 C   0  0  0  0  0  0  0  0  0  0  0  0
    2.1903   -5.6496    2.0083 C   0  0  1  0  0  0  0  0  0  0  0  0
    1.3414   -5.8603    0.8859 O   0  0  0  0  0  0  0  0  0  0  0  0
    1.1825   -5.6950    3.2626 C   0  0  0  0  0  0  0  0  0  0  0  0
   -0.6832   -5.8581    6.7591 H   0  0  0  0  0  0  0  0  0  0  0  0
   -1.5236   -6.2555    5.2747 H   0  0  0  0  0  0  0  0  0  0  0  0
   -0.4065   -4.8847    5.3254 H   0  0  0  0  0  0  0  0  0  0  0  0
   -1.2752   -8.0509    4.0441 H   0  0  0  0  0  0  0  0  0  0  0  0
   -0.6116   -7.9198    2.3820 H   0  0  0  0  0  0  0  0  0  0  0  0
    0.4099   -9.6983    4.7253 H   0  0  0  0  0  0  0  0  0  0  0  0
    2.2658  -10.5994    3.2770 H   0  0  0  0  0  0  0  0  0  0  0  0
    1.0152  -10.4455    1.9684 H   0  0  0  0  0  0  0  0  0  0  0  0
    1.3903   -8.2344    1.6651 H   0  0  0  0  0  0  0  0  0  0  0  0
    2.4093   -8.3061    4.6305 H   0  0  0  0  0  0  0  0  0  0  0  0
    3.6345   -8.5747    0.9727 H   0  0  0  0  0  0  0  0  0  0  0  0
    6.0934   -9.2720    4.6184 H   0  0  0  0  0  0  0  0  0  0  0  0
    6.7399   -6.0914    6.0882 H   0  0  0  0  0  0  0  0  0  0  0  0
    5.5778   -4.0186    5.3358 H   0  0  0  0  0  0  0  0  0  0  0  0
    5.1388   -6.8098    0.4695 H   0  0  0  0  0  0  0  0  0  0  0  0
    3.6171   -6.4336   -0.2724 H   0  0  0  0  0  0  0  0  0  0  0  0
    5.4424   -4.5380    1.2214 H   0  0  0  0  0  0  0  0  0  0  0  0
    5.0969   -4.5251   -0.4682 H   0  0  0  0  0  0  0  0  0  0  0  0
    2.4045   -4.3912   -0.9331 H   0  0  0  0  0  0  0  0  0  0  0  0
    1.8298   -2.9484   -0.1138 H   0  0  0  0  0  0  0  0  0  0  0  0
    3.8234   -1.6560   -0.9655 H   0  0  0  0  0  0  0  0  0  0  0  0
    2.0499   -3.0632   -3.0740 H   0  0  0  0  0  0  0  0  0  0  0  0
    2.9566   -1.4752   -3.2936 H   0  0  0  0  0  0  0  0  0  0  0  0
    5.1435   -2.6475   -2.8359 H   0  0  0  0  0  0  0  0  0  0  0  0
    4.2477   -4.2373   -2.6335 H   0  0  0  0  0  0  0  0  0  0  0  0
    1.9297   -3.4765    2.0243 H   0  0  0  0  0  0  0  0  0  0  0  0
    3.0431   -3.5070    4.0045 H   0  0  0  0  0  0  0  0  0  0  0  0
    4.3221   -3.0151    2.9562 H   0  0  0  0  0  0  0  0  0  0  0  0
    1.2233   -6.7855    0.7853 H   0  0  0  0  0  0  0  0  0  0  0  0
    0.3017   -5.1216    2.9938 H   0  0  0  0  0  0  0  0  0  0  0  0
    1.6295   -5.1098    4.0489 H   0  0  0  0  0  0  0  0  0  0  0  0
  1  2  1  0
  1 31  1  0
  1 32  1  0
  1 33  1  0
  3  2  1  1
  3  8  1  0
  3 30  1  0
  3  4  1  0
  4  5  1  0
  4 34  1  0
  4 35  1  0
  5  8  1  0
  5  6  1  0
  5 36  1  1
  6  7  1  0
  6 37  1  0
  6 38  1  0
  7  8  1  0
  7  9  1  0
  7 39  1  6
  8 40  1  1
  9 18  1  0
  9 10  1  0
  9 41  1  6
 10 11  1  0
 11 17  2  0
 11 12  1  0
 12 13  1  0
 12 14  2  0
 13 42  1  0
 14 15  1  0
 14 43  1  0
 15 16  2  0
 15 44  1  0
 16 27  1  0
 16 17  1  0
 17 18  1  0
 18 28  1  0
 18 19  1  6
 19 20  1  0
 19 45  1  0
 19 46  1  0
 20 21  1  0
 20 47  1  0
 20 48  1  0
 21 22  1  0
 21 26  1  0
 22 23  1  0
 22 49  1  0
 22 50  1  0
 23 25  1  0
 23 24  1  0
 23 51  1  0
 24 25  1  0
 24 52  1  0
 24 53  1  0
 25 54  1  0
 25 55  1  0
 26 27  1  0
 26 28  1  0
 26 56  1  1
 27 57  1  0
 27 58  1  0
 28 29  1  6
 28 30  1  0
 29 59  1  0
 30 60  1  0
 30 61  1  0
M  END
>  <i_m_ct_stereo_status>  (136) 
1

>  <s_m_source_file>  (136) 
/var/tmp/pbs.5076255.sched01/tmp5eg4wc32/41mqp692j8.sdf

>  <i_m_source_file_index>  (136) 
19

>  <i_lp_mmshare_version>  (136) 
48012

>  <i_f3d_flags>  (136) 
0

>  <s_epik_input>  (136) 
W0NAXTEyM1tDQEBIXTRbQ0BASF01W0NASF02W0NAXShPW0NIM10pKFtDSDJdW0NASF02W0NIMl01KVtDSDJdW0NAQF0zKFtPSF0pW0NASF0oTihbQ0gyXVtDSDJdMilbQ0gyXVtDSF03W0NIMl1bQ0gyXTcpW0NIMl1jOGMxYyhPNCljKFtPSF0pW2NIXVtjSF04

>  <s_epik_cmdline>  (136) 
J2VwaWtfcHl0aG9uJywgJy1waHQnLCAnMi4wJywgJy1waCcsICc3LjAnLCAnLXRuJywgJzgnLCAnLW1hJywgJzIwMCcsICctaW1hZScsICc8aW5maWxlLm1hZT4nLCAnLW9tYWUnLCAnPG91dGZpbGUubWFlPic=

>  <r_lp_tautomer_probability>  (136) 
1

>  <r_epik_Ionization_Penalty>  (136) 
1.90768

>  <r_epik_Ionization_Penalty_Charging>  (136) 
0

>  <r_epik_Ionization_Penalty_Neutral>  (136) 
1.90768

>  <r_epik_State_Penalty>  (136) 
2.03508

>  <r_epik_Charging_Adjusted_Penalty>  (136) 
2.03508

>  <i_epik_Tot_Q>  (136) 
0

>  <i_epik_Tot_abs_Q>  (136) 
0

>  <s_lp_Force_Field>  (136) 
OPLS3e

>  <r_lp_Energy>  (136) 
119.25

>  <b_lp_Chiralities_Consistent>  (136) 
1

>  <s_lp_Variant>  (136) 
40:0-2

>  <s_i_glide_gridfile>  (136) 
pfpi4k_grid

>  <i_i_glide_lignum>  (136) 
19

>  <i_i_glide_rotatable_bonds>  (136) 
5

>  <r_i_docking_score>  (136) 
-2.45988

>  <r_i_glide_ligand_efficiency>  (136) 
-0.0819961

>  <r_i_glide_ligand_efficiency_sa>  (136) 
-0.254781

>  <r_i_glide_ligand_efficiency_ln>  (136) 
-0.558912

>  <r_i_glide_gscore>  (136) 
-2.45988

>  <r_i_glide_lipo>  (136) 
-0.292388

>  <r_i_glide_hbond>  (136) 
-0.158907

>  <r_i_glide_metal>  (136) 
-0

>  <r_i_glide_rewards>  (136) 
-0.616923

>  <r_i_glide_evdw>  (136) 
-21.3424

>  <r_i_glide_ecoul>  (136) 
-3.7292

>  <r_i_glide_erotb>  (136) 
0.234835

>  <r_i_glide_esite>  (136) 
0

>  <r_i_glide_emodel>  (136) 
-28.4389

>  <r_i_glide_energy>  (136) 
-25.0716

>  <r_i_glide_einternal>  (136) 
0.85055

>  <r_i_glide_intrahb_reward>  (136) 
-0

>  <i_i_glide_confnum>  (136) 
5

>  <i_i_glide_posenum>  (136) 
9

>  <r_i_glide_eff_state_penalty>  (136) 
0

>  <ligand_id>  (136) 
40

>  <original_smiles>  (136) 
COC12CC3CC(C31)C1Oc3c(O)ccc4c3C13CCN(CC1CC1)C(C4)C3(O)C2

>  <smiles>  (136) 
[H]Oc1c([H])c([H])c2c3c1OC1([H])C4([H])C([H])([H])C5([H])C([H])([H])C(OC([H])([H])[H])(C([H])([H])C6(O[H])C([H])(N(C([H])([H])C7([H])C([H])([H])C7([H])[H])C([H])([H])C([H])([H])C316)C2([H])[H])C54[H]

$$$$
40:2:0
     RDKit          3D

 61 68  0  0  1  0  0  0  0  0999 V2000
    0.6865   -7.8456    2.6642 C   0  0  0  0  0  0  0  0  0  0  0  0
    1.3964   -6.6300    2.3908 O   0  0  0  0  0  0  0  0  0  0  0  0
    2.6715   -6.6611    1.7003 C   0  0  2  0  0  0  0  0  0  0  0  0
    3.2173   -8.1104    1.3687 C   0  0  0  0  0  0  0  0  0  0  0  0
    3.9850   -8.1173    2.7324 C   0  0  1  0  0  0  0  0  0  0  0  0
    5.4863   -7.7924    2.9494 C   0  0  0  0  0  0  0  0  0  0  0  0
    5.2074   -6.4895    2.2035 C   0  0  1  0  0  0  0  0  0  0  0  0
    3.7809   -6.6142    2.7146 C   0  0  1  0  0  0  0  0  0  0  0  0
    5.8558   -5.1593    2.2902 C   0  0  2  0  0  0  0  0  0  0  0  0
    5.8224   -4.6637    3.6371 O   0  0  0  0  0  0  0  0  0  0  0  0
    4.9437   -3.6262    3.6690 C   0  0  0  0  0  0  0  0  0  0  0  0
    4.4893   -2.8844    4.7827 C   0  0  0  0  0  0  0  0  0  0  0  0
    5.0071   -3.1440    6.0294 O   0  0  0  0  0  0  0  0  0  0  0  0
    3.4989   -1.8944    4.6225 C   0  0  0  0  0  0  0  0  0  0  0  0
    2.9201   -1.6384    3.3618 C   0  0  0  0  0  0  0  0  0  0  0  0
    3.3659   -2.3460    2.2279 C   0  0  0  0  0  0  0  0  0  0  0  0
    4.4010   -3.2842    2.4596 C   0  0  0  0  0  0  0  0  0  0  0  0
    5.0678   -4.1134    1.4043 C   0  0  1  0  0  0  0  0  0  0  0  0
    6.1833   -3.2794    0.6868 C   0  0  0  0  0  0  0  0  0  0  0  0
    5.6531   -2.0430   -0.0432 C   0  0  0  0  0  0  0  0  0  0  0  0
    4.5547   -2.4173   -0.9561 N   0  0  2  0  0  0  0  0  0  0  0  0
    4.0618   -1.2714   -1.7674 C   0  0  0  0  0  0  0  0  0  0  0  0
    4.0961   -1.5608   -3.2481 C   0  0  0  0  0  0  0  0  0  0  0  0
    3.3027   -0.6959   -4.2077 C   0  0  0  0  0  0  0  0  0  0  0  0
    2.8655   -2.1097   -3.9288 C   0  0  0  0  0  0  0  0  0  0  0  0
    3.4706   -3.1831   -0.2655 C   0  0  2  0  0  0  0  0  0  0  0  0
    2.8004   -2.2966    0.8271 C   0  0  0  0  0  0  0  0  0  0  0  0
    3.9758   -4.5586    0.3353 C   0  0  1  0  0  0  0  0  0  0  0  0
    4.6286   -5.2340   -0.7209 O   0  0  0  0  0  0  0  0  0  0  0  0
    2.6752   -5.4424    0.7139 C   0  0  0  0  0  0  0  0  0  0  0  0
   -0.2103   -7.6921    3.2577 H   0  0  0  0  0  0  0  0  0  0  0  0
    1.2836   -8.5615    3.2316 H   0  0  0  0  0  0  0  0  0  0  0  0
    0.3801   -8.3164    1.7277 H   0  0  0  0  0  0  0  0  0  0  0  0
    2.5164   -8.9390    1.2671 H   0  0  0  0  0  0  0  0  0  0  0  0
    3.8882   -8.1405    0.5052 H   0  0  0  0  0  0  0  0  0  0  0  0
    3.4880   -8.5679    3.5945 H   0  0  0  0  0  0  0  0  0  0  0  0
    5.7591   -7.6505    4.0016 H   0  0  0  0  0  0  0  0  0  0  0  0
    6.1385   -8.4952    2.4294 H   0  0  0  0  0  0  0  0  0  0  0  0
    5.2922   -6.7810    1.1575 H   0  0  0  0  0  0  0  0  0  0  0  0
    3.5730   -6.1485    3.6871 H   0  0  0  0  0  0  0  0  0  0  0  0
    6.8970   -5.2622    1.9770 H   0  0  0  0  0  0  0  0  0  0  0  0
    3.1542   -1.3438    5.4832 H   0  0  0  0  0  0  0  0  0  0  0  0
    2.1222   -0.9127    3.2502 H   0  0  0  0  0  0  0  0  0  0  0  0
    6.9470   -2.9616    1.3984 H   0  0  0  0  0  0  0  0  0  0  0  0
    6.7154   -3.9070   -0.0358 H   0  0  0  0  0  0  0  0  0  0  0  0
    5.3364   -1.2880    0.6807 H   0  0  0  0  0  0  0  0  0  0  0  0
    6.4670   -1.5858   -0.6089 H   0  0  0  0  0  0  0  0  0  0  0  0
    3.0359   -0.9926   -1.5232 H   0  0  0  0  0  0  0  0  0  0  0  0
    4.6527   -0.3702   -1.5919 H   0  0  0  0  0  0  0  0  0  0  0  0
    5.0608   -1.9014   -3.6246 H   0  0  0  0  0  0  0  0  0  0  0  0
    2.6992    0.1125   -3.7927 H   0  0  0  0  0  0  0  0  0  0  0  0
    3.7173   -0.4995   -5.1944 H   0  0  0  0  0  0  0  0  0  0  0  0
    3.0205   -2.8496   -4.7123 H   0  0  0  0  0  0  0  0  0  0  0  0
    1.9811   -2.2603   -3.3096 H   0  0  0  0  0  0  0  0  0  0  0  0
    2.7351   -3.3961   -1.0461 H   0  0  0  0  0  0  0  0  0  0  0  0
    1.7658   -2.6034    0.9120 H   0  0  0  0  0  0  0  0  0  0  0  0
    2.7458   -1.2456    0.5405 H   0  0  0  0  0  0  0  0  0  0  0  0
    3.9865   -5.5299   -1.3619 H   0  0  0  0  0  0  0  0  0  0  0  0
    2.2152   -5.7725   -0.2156 H   0  0  0  0  0  0  0  0  0  0  0  0
    1.9463   -4.7456    1.1168 H   0  0  0  0  0  0  0  0  0  0  0  0
    4.9713   -3.0824   -1.6098 H   0  0  0  0  0  0  0  0  0  0  0  0
  1  2  1  0
  1 31  1  0
  1 32  1  0
  1 33  1  0
  3  2  1  1
  3  8  1  0
  3 30  1  0
  3  4  1  0
  4  5  1  0
  4 34  1  0
  4 35  1  0
  5  8  1  0
  5  6  1  0
  5 36  1  1
  6  7  1  0
  6 37  1  0
  6 38  1  0
  7  8  1  0
  7  9  1  0
  7 39  1  6
  8 40  1  1
  9 18  1  0
  9 10  1  0
  9 41  1  6
 10 11  1  0
 11 17  2  0
 11 12  1  0
 12 13  1  0
 12 14  2  0
 14 15  1  0
 14 42  1  0
 15 16  2  0
 15 43  1  0
 16 27  1  0
 16 17  1  0
 17 18  1  0
 18 28  1  0
 18 19  1  6
 19 20  1  0
 19 44  1  0
 19 45  1  0
 20 21  1  0
 20 46  1  0
 20 47  1  0
 21 22  1  0
 21 26  1  0
 21 61  1  6
 22 23  1  0
 22 48  1  0
 22 49  1  0
 23 25  1  0
 23 24  1  0
 23 50  1  0
 24 25  1  0
 24 51  1  0
 24 52  1  0
 25 53  1  0
 25 54  1  0
 26 27  1  0
 26 28  1  0
 26 55  1  6
 27 56  1  0
 27 57  1  0
 28 29  1  6
 28 30  1  0
 29 58  1  0
 30 59  1  0
 30 60  1  0
M  CHG  2  13  -1  21   1
M  END
>  <i_m_ct_stereo_status>  (137) 
1

>  <s_m_source_file>  (137) 
/var/tmp/pbs.5076255.sched01/tmp5eg4wc32/41mqp692j8.sdf

>  <i_m_source_file_index>  (137) 
20

>  <i_lp_mmshare_version>  (137) 
48012

>  <i_f3d_flags>  (137) 
0

>  <s_epik_input>  (137) 
W0NAXTEyM1tDQEBIXTRbQ0BASF01W0NASF02W0NAXShPW0NIM10pKFtDSDJdW0NASF02W0NIMl01KVtDSDJdW0NAQF0zKFtPSF0pW0NASF0oTihbQ0gyXVtDSDJdMilbQ0gyXVtDSF03W0NIMl1bQ0gyXTcpW0NIMl1jOGMxYyhPNCljKFtPSF0pW2NIXVtjSF04

>  <s_epik_cmdline>  (137) 
J2VwaWtfcHl0aG9uJywgJy1waHQnLCAnMi4wJywgJy1waCcsICc3LjAnLCAnLXRuJywgJzgnLCAnLW1hJywgJzIwMCcsICctaW1hZScsICc8aW5maWxlLm1hZT4nLCAnLW9tYWUnLCAnPG91dGZpbGUubWFlPic=

>  <r_epik_Ionization_Penalty>  (137) 
2.54277

>  <r_epik_Ionization_Penalty_Charging>  (137) 
2.54277

>  <r_epik_Ionization_Penalty_Neutral>  (137) 
9.17767e-08

>  <r_epik_State_Penalty>  (137) 
2.70638

>  <r_epik_Charging_Adjusted_Penalty>  (137) 
5.24915

>  <i_epik_Tot_Q>  (137) 
0

>  <i_epik_Tot_abs_Q>  (137) 
2

>  <s_lp_Force_Field>  (137) 
OPLS3e

>  <r_lp_Energy>  (137) 
110.277

>  <b_lp_Chiralities_Consistent>  (137) 
1

>  <s_lp_Variant>  (137) 
40:0-3

>  <s_i_glide_gridfile>  (137) 
pfpi4k_grid

>  <i_i_glide_lignum>  (137) 
20

>  <i_i_glide_rotatable_bonds>  (137) 
4

>  <r_i_docking_score>  (137) 
-3.59834

>  <r_i_glide_ligand_efficiency>  (137) 
-0.119945

>  <r_i_glide_ligand_efficiency_sa>  (137) 
-0.372696

>  <r_i_glide_ligand_efficiency_ln>  (137) 
-0.817583

>  <r_i_glide_gscore>  (137) 
-3.59834

>  <r_i_glide_lipo>  (137) 
-0.674388

>  <r_i_glide_hbond>  (137) 
-0.32

>  <r_i_glide_metal>  (137) 
-0

>  <r_i_glide_rewards>  (137) 
-0.616923

>  <r_i_glide_evdw>  (137) 
-22.66

>  <r_i_glide_ecoul>  (137) 
-7.14318

>  <r_i_glide_erotb>  (137) 
0.234835

>  <r_i_glide_esite>  (137) 
-0.0173889

>  <r_i_glide_emodel>  (137) 
-30.7685

>  <r_i_glide_energy>  (137) 
-29.8032

>  <r_i_glide_einternal>  (137) 
11.5304

>  <r_i_glide_intrahb_reward>  (137) 
-0

>  <i_i_glide_confnum>  (137) 
2

>  <i_i_glide_posenum>  (137) 
1

>  <r_i_glide_eff_state_penalty>  (137) 
0

>  <ligand_id>  (137) 
40

>  <original_smiles>  (137) 
COC12CC3CC(C31)C1Oc3c(O)ccc4c3C13CCN(CC1CC1)C(C4)C3(O)C2

>  <smiles>  (137) 
[H]OC12C([H])([H])C3(OC([H])([H])[H])C([H])([H])C4([H])C([H])([H])C([H])(C5([H])Oc6c([O-])c([H])c([H])c7c6C51C([H])([H])C([H])([H])[N+]([H])(C([H])([H])C1([H])C([H])([H])C1([H])[H])C2([H])C7([H])[H])C43[H]

$$$$
40:2:1
     RDKit          3D

 61 68  0  0  1  0  0  0  0  0999 V2000
   -0.6263   -7.3541    2.2327 C   0  0  0  0  0  0  0  0  0  0  0  0
    0.3557   -6.3294    2.0369 O   0  0  0  0  0  0  0  0  0  0  0  0
    1.7182   -6.6939    1.6916 C   0  0  2  0  0  0  0  0  0  0  0  0
    1.9971   -8.2489    1.6597 C   0  0  0  0  0  0  0  0  0  0  0  0
    2.4303   -8.1804    3.1613 C   0  0  1  0  0  0  0  0  0  0  0  0
    3.8871   -8.1081    3.6959 C   0  0  0  0  0  0  0  0  0  0  0  0
    4.0617   -6.9060    2.7714 C   0  0  1  0  0  0  0  0  0  0  0  0
    2.5624   -6.6841    2.9364 C   0  0  1  0  0  0  0  0  0  0  0  0
    4.9549   -5.7172    2.8778 C   0  0  2  0  0  0  0  0  0  0  0  0
    4.7710   -5.0019    4.1137 O   0  0  0  0  0  0  0  0  0  0  0  0
    4.1089   -3.8455    3.8206 C   0  0  0  0  0  0  0  0  0  0  0  0
    3.5738   -2.8804    4.6980 C   0  0  0  0  0  0  0  0  0  0  0  0
    3.7284   -3.0349    6.0445 O   0  0  0  0  0  0  0  0  0  0  0  0
    2.8700   -1.7670    4.1977 C   0  0  0  0  0  0  0  0  0  0  0  0
    2.6472   -1.6116    2.8073 C   0  0  0  0  0  0  0  0  0  0  0  0
    3.1656   -2.5606    1.9193 C   0  0  0  0  0  0  0  0  0  0  0  0
    3.9147   -3.6133    2.4774 C   0  0  0  0  0  0  0  0  0  0  0  0
    4.6174   -4.7025    1.7222 C   0  0  1  0  0  0  0  0  0  0  0  0
    6.0037   -4.1934    1.2022 C   0  0  0  0  0  0  0  0  0  0  0  0
    5.9175   -3.0058    0.2347 C   0  0  0  0  0  0  0  0  0  0  0  0
    4.9818   -3.3276   -0.8705 N   0  0  2  0  0  0  0  0  0  0  0  0
    4.9330   -2.2357   -1.8939 C   0  0  0  0  0  0  0  0  0  0  0  0
    4.2377   -2.6669   -3.1717 C   0  0  0  0  0  0  0  0  0  0  0  0
    3.5463   -1.6342   -4.0440 C   0  0  0  0  0  0  0  0  0  0  0  0
    2.7229   -2.6175   -3.2664 C   0  0  0  0  0  0  0  0  0  0  0  0
    3.6384   -3.7809   -0.3627 C   0  0  2  0  0  0  0  0  0  0  0  0
    2.9246   -2.6261    0.4146 C   0  0  0  0  0  0  0  0  0  0  0  0
    3.7200   -5.1153    0.4765 C   0  0  1  0  0  0  0  0  0  0  0  0
    4.4313   -6.0464   -0.3195 O   0  0  0  0  0  0  0  0  0  0  0  0
    2.2104   -5.6742    0.6124 C   0  0  0  0  0  0  0  0  0  0  0  0
   -1.5818   -6.9639    2.5679 H   0  0  0  0  0  0  0  0  0  0  0  0
   -0.3276   -8.0791    2.9920 H   0  0  0  0  0  0  0  0  0  0  0  0
   -0.8030   -7.8861    1.2952 H   0  0  0  0  0  0  0  0  0  0  0  0
    1.1600   -8.9275    1.4945 H   0  0  0  0  0  0  0  0  0  0  0  0
    2.8152   -8.5370    0.9887 H   0  0  0  0  0  0  0  0  0  0  0  0
    1.6741   -8.4121    3.9137 H   0  0  0  0  0  0  0  0  0  0  0  0
    3.9559   -7.8598    4.7616 H   0  0  0  0  0  0  0  0  0  0  0  0
    4.4773   -8.9872    3.4299 H   0  0  0  0  0  0  0  0  0  0  0  0
    4.3107   -7.3647    1.8119 H   0  0  0  0  0  0  0  0  0  0  0  0
    2.2545   -6.0398    3.7702 H   0  0  0  0  0  0  0  0  0  0  0  0
    5.9896   -6.0613    2.8229 H   0  0  0  0  0  0  0  0  0  0  0  0
    2.4710   -1.0378    4.8754 H   0  0  0  0  0  0  0  0  0  0  0  0
    2.0668   -0.7831    2.4297 H   0  0  0  0  0  0  0  0  0  0  0  0
    6.6403   -3.9095    2.0417 H   0  0  0  0  0  0  0  0  0  0  0  0
    6.5330   -5.0089    0.6989 H   0  0  0  0  0  0  0  0  0  0  0  0
    5.6061   -2.1040    0.7691 H   0  0  0  0  0  0  0  0  0  0  0  0
    6.9140   -2.7938   -0.1666 H   0  0  0  0  0  0  0  0  0  0  0  0
    4.4631   -1.3242   -1.5215 H   0  0  0  0  0  0  0  0  0  0  0  0
    5.9473   -1.9365   -2.1623 H   0  0  0  0  0  0  0  0  0  0  0  0
    4.7372   -3.4798   -3.7060 H   0  0  0  0  0  0  0  0  0  0  0  0
    3.5230   -0.5980   -3.7092 H   0  0  0  0  0  0  0  0  0  0  0  0
    3.5310   -1.7667   -5.1222 H   0  0  0  0  0  0  0  0  0  0  0  0
    2.2466   -3.4472   -3.7891 H   0  0  0  0  0  0  0  0  0  0  0  0
    2.1840   -2.2367   -2.3997 H   0  0  0  0  0  0  0  0  0  0  0  0
    3.0440   -4.0421   -1.2387 H   0  0  0  0  0  0  0  0  0  0  0  0
    1.8511   -2.7288    0.2675 H   0  0  0  0  0  0  0  0  0  0  0  0
    3.1408   -1.6351    0.0120 H   0  0  0  0  0  0  0  0  0  0  0  0
    3.9608   -6.1671   -1.1439 H   0  0  0  0  0  0  0  0  0  0  0  0
    1.8873   -6.0430   -0.3575 H   0  0  0  0  0  0  0  0  0  0  0  0
    1.5868   -4.8004    0.7470 H   0  0  0  0  0  0  0  0  0  0  0  0
    5.3845   -4.1392   -1.3315 H   0  0  0  0  0  0  0  0  0  0  0  0
  1  2  1  0
  1 31  1  0
  1 32  1  0
  1 33  1  0
  3  2  1  1
  3  8  1  0
  3 30  1  0
  3  4  1  0
  4  5  1  0
  4 34  1  0
  4 35  1  0
  5  8  1  0
  5  6  1  0
  5 36  1  1
  6  7  1  0
  6 37  1  0
  6 38  1  0
  7  8  1  0
  7  9  1  0
  7 39  1  6
  8 40  1  1
  9 18  1  0
  9 10  1  0
  9 41  1  6
 10 11  1  0
 11 17  2  0
 11 12  1  0
 12 13  1  0
 12 14  2  0
 14 15  1  0
 14 42  1  0
 15 16  2  0
 15 43  1  0
 16 27  1  0
 16 17  1  0
 17 18  1  0
 18 28  1  0
 18 19  1  6
 19 20  1  0
 19 44  1  0
 19 45  1  0
 20 21  1  0
 20 46  1  0
 20 47  1  0
 21 22  1  0
 21 26  1  0
 21 61  1  6
 22 23  1  0
 22 48  1  0
 22 49  1  0
 23 25  1  0
 23 24  1  0
 23 50  1  0
 24 25  1  0
 24 51  1  0
 24 52  1  0
 25 53  1  0
 25 54  1  0
 26 27  1  0
 26 28  1  0
 26 55  1  6
 27 56  1  0
 27 57  1  0
 28 29  1  6
 28 30  1  0
 29 58  1  0
 30 59  1  0
 30 60  1  0
M  CHG  2  13  -1  21   1
M  END
>  <i_m_ct_stereo_status>  (138) 
1

>  <s_m_source_file>  (138) 
/var/tmp/pbs.5076255.sched01/tmp5eg4wc32/41mqp692j8.sdf

>  <i_m_source_file_index>  (138) 
20

>  <i_lp_mmshare_version>  (138) 
48012

>  <i_f3d_flags>  (138) 
0

>  <s_epik_input>  (138) 
W0NAXTEyM1tDQEBIXTRbQ0BASF01W0NASF02W0NAXShPW0NIM10pKFtDSDJdW0NASF02W0NIMl01KVtDSDJdW0NAQF0zKFtPSF0pW0NASF0oTihbQ0gyXVtDSDJdMilbQ0gyXVtDSF03W0NIMl1bQ0gyXTcpW0NIMl1jOGMxYyhPNCljKFtPSF0pW2NIXVtjSF04

>  <s_epik_cmdline>  (138) 
J2VwaWtfcHl0aG9uJywgJy1waHQnLCAnMi4wJywgJy1waCcsICc3LjAnLCAnLXRuJywgJzgnLCAnLW1hJywgJzIwMCcsICctaW1hZScsICc8aW5maWxlLm1hZT4nLCAnLW9tYWUnLCAnPG91dGZpbGUubWFlPic=

>  <r_epik_Ionization_Penalty>  (138) 
2.54277

>  <r_epik_Ionization_Penalty_Charging>  (138) 
2.54277

>  <r_epik_Ionization_Penalty_Neutral>  (138) 
9.17767e-08

>  <r_epik_State_Penalty>  (138) 
2.70638

>  <r_epik_Charging_Adjusted_Penalty>  (138) 
5.24915

>  <i_epik_Tot_Q>  (138) 
0

>  <i_epik_Tot_abs_Q>  (138) 
2

>  <s_lp_Force_Field>  (138) 
OPLS3e

>  <r_lp_Energy>  (138) 
110.277

>  <b_lp_Chiralities_Consistent>  (138) 
1

>  <s_lp_Variant>  (138) 
40:0-3

>  <s_i_glide_gridfile>  (138) 
pfpi4k_grid

>  <i_i_glide_lignum>  (138) 
20

>  <i_i_glide_rotatable_bonds>  (138) 
4

>  <r_i_docking_score>  (138) 
-3.47361

>  <r_i_glide_ligand_efficiency>  (138) 
-0.115787

>  <r_i_glide_ligand_efficiency_sa>  (138) 
-0.359777

>  <r_i_glide_ligand_efficiency_ln>  (138) 
-0.789242

>  <r_i_glide_gscore>  (138) 
-3.47361

>  <r_i_glide_lipo>  (138) 
-0.449562

>  <r_i_glide_hbond>  (138) 
-0.50111

>  <r_i_glide_metal>  (138) 
-0

>  <r_i_glide_rewards>  (138) 
-0.616923

>  <r_i_glide_evdw>  (138) 
-22.2486

>  <r_i_glide_ecoul>  (138) 
-6.85612

>  <r_i_glide_erotb>  (138) 
0.234835

>  <r_i_glide_esite>  (138) 
0

>  <r_i_glide_emodel>  (138) 
-29.4296

>  <r_i_glide_energy>  (138) 
-29.1048

>  <r_i_glide_einternal>  (138) 
11.8356

>  <r_i_glide_intrahb_reward>  (138) 
-0

>  <i_i_glide_confnum>  (138) 
2

>  <i_i_glide_posenum>  (138) 
14

>  <r_i_glide_eff_state_penalty>  (138) 
0

>  <ligand_id>  (138) 
40

>  <original_smiles>  (138) 
COC12CC3CC(C31)C1Oc3c(O)ccc4c3C13CCN(CC1CC1)C(C4)C3(O)C2

>  <smiles>  (138) 
[H]OC12C([H])([H])C3(OC([H])([H])[H])C([H])([H])C4([H])C([H])([H])C([H])(C5([H])Oc6c([O-])c([H])c([H])c7c6C51C([H])([H])C([H])([H])[N+]([H])(C([H])([H])C1([H])C([H])([H])C1([H])[H])C2([H])C7([H])[H])C43[H]

$$$$
40:2:2
     RDKit          3D

 61 68  0  0  1  0  0  0  0  0999 V2000
    1.6292   -5.9324    5.8781 C   0  0  0  0  0  0  0  0  0  0  0  0
    0.5503   -6.3354    5.0237 O   0  0  0  0  0  0  0  0  0  0  0  0
    0.8607   -6.7744    3.6916 C   0  0  2  0  0  0  0  0  0  0  0  0
   -0.2530   -7.8185    3.3043 C   0  0  0  0  0  0  0  0  0  0  0  0
    0.6808   -8.9968    3.7135 C   0  0  1  0  0  0  0  0  0  0  0  0
    1.6694   -9.8191    2.8241 C   0  0  0  0  0  0  0  0  0  0  0  0
    2.1966   -8.4797    2.3153 C   0  0  1  0  0  0  0  0  0  0  0  0
    1.7860   -7.9589    3.6636 C   0  0  1  0  0  0  0  0  0  0  0  0
    3.5566   -8.0450    1.8589 C   0  0  2  0  0  0  0  0  0  0  0  0
    4.5925   -8.3358    2.8206 O   0  0  0  0  0  0  0  0  0  0  0  0
    4.9807   -7.1497    3.3875 C   0  0  0  0  0  0  0  0  0  0  0  0
    5.8608   -6.9304    4.4770 C   0  0  0  0  0  0  0  0  0  0  0  0
    6.4821   -7.9789    5.0855 O   0  0  0  0  0  0  0  0  0  0  0  0
    6.0863   -5.6056    4.9423 C   0  0  0  0  0  0  0  0  0  0  0  0
    5.4255   -4.4964    4.3791 C   0  0  0  0  0  0  0  0  0  0  0  0
    4.5532   -4.7020    3.2832 C   0  0  0  0  0  0  0  0  0  0  0  0
    4.4091   -6.0225    2.8340 C   0  0  0  0  0  0  0  0  0  0  0  0
    3.5791   -6.4740    1.6557 C   0  0  1  0  0  0  0  0  0  0  0  0
    4.3851   -6.2658    0.3405 C   0  0  0  0  0  0  0  0  0  0  0  0
    4.7442   -4.8086    0.0423 C   0  0  0  0  0  0  0  0  0  0  0  0
    3.5371   -3.9544    0.1038 N   0  0  2  0  0  0  0  0  0  0  0  0
    3.8118   -2.5368   -0.2588 C   0  0  0  0  0  0  0  0  0  0  0  0
    4.0604   -2.3672   -1.7444 C   0  0  0  0  0  0  0  0  0  0  0  0
    5.4715   -2.3392   -2.3023 C   0  0  0  0  0  0  0  0  0  0  0  0
    4.6546   -1.0749   -2.2724 C   0  0  0  0  0  0  0  0  0  0  0  0
    2.8070   -4.1163    1.3998 C   0  0  2  0  0  0  0  0  0  0  0  0
    3.6841   -3.6505    2.6011 C   0  0  0  0  0  0  0  0  0  0  0  0
    2.2574   -5.5802    1.5962 C   0  0  1  0  0  0  0  0  0  0  0  0
    1.4655   -5.8510    0.4439 O   0  0  0  0  0  0  0  0  0  0  0  0
    1.2182   -5.5364    2.8099 C   0  0  0  0  0  0  0  0  0  0  0  0
    1.2319   -5.5551    6.8230 H   0  0  0  0  0  0  0  0  0  0  0  0
    2.2397   -5.1372    5.4534 H   0  0  0  0  0  0  0  0  0  0  0  0
    2.3003   -6.7513    6.1379 H   0  0  0  0  0  0  0  0  0  0  0  0
   -1.1615   -7.7842    3.9138 H   0  0  0  0  0  0  0  0  0  0  0  0
   -0.5067   -7.8711    2.2428 H   0  0  0  0  0  0  0  0  0  0  0  0
    0.5434   -9.3576    4.7355 H   0  0  0  0  0  0  0  0  0  0  0  0
    2.4036  -10.3812    3.4160 H   0  0  0  0  0  0  0  0  0  0  0  0
    1.1786  -10.4202    2.0614 H   0  0  0  0  0  0  0  0  0  0  0  0
    1.4904   -8.2052    1.5310 H   0  0  0  0  0  0  0  0  0  0  0  0
    2.5420   -8.0938    4.4372 H   0  0  0  0  0  0  0  0  0  0  0  0
    3.7946   -8.5831    0.9383 H   0  0  0  0  0  0  0  0  0  0  0  0
    6.7714   -5.4546    5.7622 H   0  0  0  0  0  0  0  0  0  0  0  0
    5.5818   -3.4998    4.7665 H   0  0  0  0  0  0  0  0  0  0  0  0
    5.3106   -6.8453    0.3601 H   0  0  0  0  0  0  0  0  0  0  0  0
    3.8204   -6.6643   -0.5007 H   0  0  0  0  0  0  0  0  0  0  0  0
    5.5172   -4.4689    0.7326 H   0  0  0  0  0  0  0  0  0  0  0  0
    5.1844   -4.7567   -0.9518 H   0  0  0  0  0  0  0  0  0  0  0  0
    2.9627   -1.9044   -0.0000 H   0  0  0  0  0  0  0  0  0  0  0  0
    4.6711   -2.1443    0.2820 H   0  0  0  0  0  0  0  0  0  0  0  0
    3.2843   -2.7992   -2.3763 H   0  0  0  0  0  0  0  0  0  0  0  0
    6.2928   -2.4405   -1.5940 H   0  0  0  0  0  0  0  0  0  0  0  0
    5.6246   -2.8249   -3.2656 H   0  0  0  0  0  0  0  0  0  0  0  0
    4.2963   -0.7050   -3.2314 H   0  0  0  0  0  0  0  0  0  0  0  0
    4.9380   -0.3044   -1.5579 H   0  0  0  0  0  0  0  0  0  0  0  0
    1.9498   -3.4411    1.3454 H   0  0  0  0  0  0  0  0  0  0  0  0
    3.0244   -3.2591    3.3713 H   0  0  0  0  0  0  0  0  0  0  0  0
    4.3068   -2.7994    2.3312 H   0  0  0  0  0  0  0  0  0  0  0  0
    2.0387   -6.0466   -0.2847 H   0  0  0  0  0  0  0  0  0  0  0  0
    0.2866   -5.1042    2.4670 H   0  0  0  0  0  0  0  0  0  0  0  0
    1.5528   -4.7460    3.4707 H   0  0  0  0  0  0  0  0  0  0  0  0
    2.9129   -4.2855   -0.6174 H   0  0  0  0  0  0  0  0  0  0  0  0
  1  2  1  0
  1 31  1  0
  1 32  1  0
  1 33  1  0
  3  2  1  1
  3  8  1  0
  3 30  1  0
  3  4  1  0
  4  5  1  0
  4 34  1  0
  4 35  1  0
  5  8  1  0
  5  6  1  0
  5 36  1  1
  6  7  1  0
  6 37  1  0
  6 38  1  0
  7  8  1  0
  7  9  1  0
  7 39  1  6
  8 40  1  1
  9 18  1  0
  9 10  1  0
  9 41  1  6
 10 11  1  0
 11 17  2  0
 11 12  1  0
 12 13  1  0
 12 14  2  0
 14 15  1  0
 14 42  1  0
 15 16  2  0
 15 43  1  0
 16 27  1  0
 16 17  1  0
 17 18  1  0
 18 28  1  0
 18 19  1  6
 19 20  1  0
 19 44  1  0
 19 45  1  0
 20 21  1  0
 20 46  1  0
 20 47  1  0
 21 22  1  0
 21 26  1  0
 21 61  1  6
 22 23  1  0
 22 48  1  0
 22 49  1  0
 23 25  1  0
 23 24  1  0
 23 50  1  0
 24 25  1  0
 24 51  1  0
 24 52  1  0
 25 53  1  0
 25 54  1  0
 26 27  1  0
 26 28  1  0
 26 55  1  6
 27 56  1  0
 27 57  1  0
 28 29  1  6
 28 30  1  0
 29 58  1  0
 30 59  1  0
 30 60  1  0
M  CHG  2  13  -1  21   1
M  END
>  <i_m_ct_stereo_status>  (139) 
1

>  <s_m_source_file>  (139) 
/var/tmp/pbs.5076255.sched01/tmp5eg4wc32/41mqp692j8.sdf

>  <i_m_source_file_index>  (139) 
20

>  <i_lp_mmshare_version>  (139) 
48012

>  <i_f3d_flags>  (139) 
0

>  <s_epik_input>  (139) 
W0NAXTEyM1tDQEBIXTRbQ0BASF01W0NASF02W0NAXShPW0NIM10pKFtDSDJdW0NASF02W0NIMl01KVtDSDJdW0NAQF0zKFtPSF0pW0NASF0oTihbQ0gyXVtDSDJdMilbQ0gyXVtDSF03W0NIMl1bQ0gyXTcpW0NIMl1jOGMxYyhPNCljKFtPSF0pW2NIXVtjSF04

>  <s_epik_cmdline>  (139) 
J2VwaWtfcHl0aG9uJywgJy1waHQnLCAnMi4wJywgJy1waCcsICc3LjAnLCAnLXRuJywgJzgnLCAnLW1hJywgJzIwMCcsICctaW1hZScsICc8aW5maWxlLm1hZT4nLCAnLW9tYWUnLCAnPG91dGZpbGUubWFlPic=

>  <r_epik_Ionization_Penalty>  (139) 
2.54277

>  <r_epik_Ionization_Penalty_Charging>  (139) 
2.54277

>  <r_epik_Ionization_Penalty_Neutral>  (139) 
9.17767e-08

>  <r_epik_State_Penalty>  (139) 
2.70638

>  <r_epik_Charging_Adjusted_Penalty>  (139) 
5.24915

>  <i_epik_Tot_Q>  (139) 
0

>  <i_epik_Tot_abs_Q>  (139) 
2

>  <s_lp_Force_Field>  (139) 
OPLS3e

>  <r_lp_Energy>  (139) 
110.277

>  <b_lp_Chiralities_Consistent>  (139) 
1

>  <s_lp_Variant>  (139) 
40:0-3

>  <s_i_glide_gridfile>  (139) 
pfpi4k_grid

>  <i_i_glide_lignum>  (139) 
20

>  <i_i_glide_rotatable_bonds>  (139) 
4

>  <r_i_docking_score>  (139) 
-2.81707

>  <r_i_glide_ligand_efficiency>  (139) 
-0.0939025

>  <r_i_glide_ligand_efficiency_sa>  (139) 
-0.291777

>  <r_i_glide_ligand_efficiency_ln>  (139) 
-0.64007

>  <r_i_glide_gscore>  (139) 
-2.81707

>  <r_i_glide_lipo>  (139) 
-0.294676

>  <r_i_glide_hbond>  (139) 
-0.152143

>  <r_i_glide_metal>  (139) 
-0

>  <r_i_glide_rewards>  (139) 
-0.616923

>  <r_i_glide_evdw>  (139) 
-20.0929

>  <r_i_glide_ecoul>  (139) 
-6.50762

>  <r_i_glide_erotb>  (139) 
0.234835

>  <r_i_glide_esite>  (139) 
-0.00737811

>  <r_i_glide_emodel>  (139) 
-29.6783

>  <r_i_glide_energy>  (139) 
-26.6006

>  <r_i_glide_einternal>  (139) 
5.03173

>  <r_i_glide_intrahb_reward>  (139) 
-0

>  <i_i_glide_confnum>  (139) 
2

>  <i_i_glide_posenum>  (139) 
19

>  <r_i_glide_eff_state_penalty>  (139) 
0

>  <ligand_id>  (139) 
40

>  <original_smiles>  (139) 
COC12CC3CC(C31)C1Oc3c(O)ccc4c3C13CCN(CC1CC1)C(C4)C3(O)C2

>  <smiles>  (139) 
[H]OC12C([H])([H])C3(OC([H])([H])[H])C([H])([H])C4([H])C([H])([H])C([H])(C5([H])Oc6c([O-])c([H])c([H])c7c6C51C([H])([H])C([H])([H])[N+]([H])(C([H])([H])C1([H])C([H])([H])C1([H])[H])C2([H])C7([H])[H])C43[H]

$$$$
41:0:0
     RDKit          3D

 23 25  0  0  1  0  0  0  0  0999 V2000
    5.6826   -8.6160    2.4746 C   0  0  0  0  0  0  0  0  0  0  0  0
    4.8057   -7.7238    1.8265 C   0  0  0  0  0  0  0  0  0  0  0  0
    5.3308   -6.5556    1.2248 C   0  0  0  0  0  0  0  0  0  0  0  0
    4.4648   -5.5775    0.5258 C   0  0  0  0  0  0  0  0  0  0  0  0
    3.1435   -5.5646    0.6692 N   0  0  0  0  0  0  0  0  0  0  0  0
    2.7476   -4.5122   -0.1711 O   0  0  0  0  0  0  0  0  0  0  0  0
    3.8968   -4.0247   -0.7143 C   0  0  0  0  0  0  0  0  0  0  0  0
    3.8088   -2.9094   -1.6484 C   0  0  0  0  0  0  0  0  0  0  0  0
    2.9029   -2.8905   -2.7583 C   0  0  0  0  0  0  0  0  0  0  0  0
    3.0152   -1.7570   -3.5206 C   0  0  0  0  0  0  0  0  0  0  0  0
    4.2163   -0.6733   -2.8799 S   0  0  0  0  0  0  0  0  0  0  0  0
    4.5779   -1.7761   -1.5868 C   0  0  0  0  0  0  0  0  0  0  0  0
    5.0034   -4.6296   -0.2885 N   0  0  0  0  0  0  0  0  0  0  0  0
    6.7299   -6.3623    1.3122 C   0  0  0  0  0  0  0  0  0  0  0  0
    7.5216   -7.3123    1.9827 C   0  0  0  0  0  0  0  0  0  0  0  0
    7.0111   -8.4190    2.5548 N   0  0  0  0  0  0  0  0  0  0  0  0
    5.3074   -9.5106    2.9452 H   0  0  0  0  0  0  0  0  0  0  0  0
    3.7488   -7.9418    1.7901 H   0  0  0  0  0  0  0  0  0  0  0  0
    2.2157   -3.7023   -2.9568 H   0  0  0  0  0  0  0  0  0  0  0  0
    2.4479   -1.4783   -4.4031 H   0  0  0  0  0  0  0  0  0  0  0  0
    5.3259   -1.5491   -0.8409 H   0  0  0  0  0  0  0  0  0  0  0  0
    7.1941   -5.4942    0.8693 H   0  0  0  0  0  0  0  0  0  0  0  0
    8.5881   -7.1830    2.0699 H   0  0  0  0  0  0  0  0  0  0  0  0
  1 16  2  0
  1  2  1  0
  1 17  1  0
  2  3  2  0
  2 18  1  0
  3  4  1  0
  3 14  1  0
  4 13  1  0
  4  5  2  0
  5  6  1  0
  6  7  1  0
  7  8  1  0
  7 13  2  0
  8 12  2  0
  8  9  1  0
  9 10  2  0
  9 19  1  0
 10 11  1  0
 10 20  1  0
 11 12  1  0
 12 21  1  0
 14 15  2  0
 14 22  1  0
 15 16  1  0
 15 23  1  0
M  END
>  <i_m_ct_stereo_status>  (140) 
1

>  <s_m_source_file>  (140) 
/var/tmp/pbs.5076255.sched01/tmp5eg4wc32/41mqp692j8.sdf

>  <i_m_source_file_index>  (140) 
21

>  <i_lp_mmshare_version>  (140) 
48012

>  <i_f3d_flags>  (140) 
0

>  <s_epik_input>  (140) 
W2NIXTFbY0hdbltjSF1bY0hdYzEtYzJub2MobjIpLWMzW2NIXVtjSF1zW2NIXTM=

>  <s_epik_cmdline>  (140) 
J2VwaWtfcHl0aG9uJywgJy1waHQnLCAnMi4wJywgJy1waCcsICc3LjAnLCAnLXRuJywgJzgnLCAnLW1hJywgJzIwMCcsICctaW1hZScsICc8aW5maWxlLm1hZT4nLCAnLW9tYWUnLCAnPG91dGZpbGUubWFlPic=

>  <r_lp_tautomer_probability>  (140) 
1

>  <r_epik_Ionization_Penalty>  (140) 
0.000604584

>  <r_epik_Ionization_Penalty_Charging>  (140) 
0

>  <r_epik_Ionization_Penalty_Neutral>  (140) 
0.000604584

>  <r_epik_State_Penalty>  (140) 
0.000380979

>  <r_epik_Charging_Adjusted_Penalty>  (140) 
0.000380979

>  <i_epik_Tot_Q>  (140) 
0

>  <i_epik_Tot_abs_Q>  (140) 
0

>  <s_lp_Force_Field>  (140) 
OPLS3e

>  <r_lp_Energy>  (140) 
17.7692

>  <b_lp_Chiralities_Consistent>  (140) 
1

>  <s_lp_Variant>  (140) 
41:0-1

>  <s_i_glide_gridfile>  (140) 
pfpi4k_grid

>  <i_i_glide_lignum>  (140) 
21

>  <i_i_glide_rotatable_bonds>  (140) 
2

>  <r_i_docking_score>  (140) 
-3.48713

>  <r_i_glide_ligand_efficiency>  (140) 
-0.217946

>  <r_i_glide_ligand_efficiency_sa>  (140) 
-0.549189

>  <r_i_glide_ligand_efficiency_ln>  (140) 
-0.924334

>  <r_i_glide_gscore>  (140) 
-3.48713

>  <r_i_glide_lipo>  (140) 
-0.530769

>  <r_i_glide_hbond>  (140) 
0

>  <r_i_glide_metal>  (140) 
-0

>  <r_i_glide_rewards>  (140) 
-1.9523

>  <r_i_glide_evdw>  (140) 
-23.8015

>  <r_i_glide_ecoul>  (140) 
-2.65437

>  <r_i_glide_erotb>  (140) 
0.649132

>  <r_i_glide_esite>  (140) 
-0.0649669

>  <r_i_glide_emodel>  (140) 
-31.161

>  <r_i_glide_energy>  (140) 
-26.4559

>  <r_i_glide_einternal>  (140) 
2.38845

>  <r_i_glide_intrahb_reward>  (140) 
-0

>  <i_i_glide_confnum>  (140) 
3

>  <i_i_glide_posenum>  (140) 
15

>  <r_i_glide_eff_state_penalty>  (140) 
0

>  <ligand_id>  (140) 
41

>  <original_smiles>  (140) 
c1cc(-c2noc(-c3ccsc3)n2)ccn1

>  <smiles>  (140) 
[H]c1nc([H])c([H])c(-c2noc(-c3c([H])sc([H])c3[H])n2)c1[H]

$$$$
41:0:1
     RDKit          3D

 23 25  0  0  1  0  0  0  0  0999 V2000
    3.9777   -2.6805   -0.8034 C   0  0  0  0  0  0  0  0  0  0  0  0
    3.0959   -3.6668   -0.3255 C   0  0  0  0  0  0  0  0  0  0  0  0
    3.6187   -4.8403    0.2678 C   0  0  0  0  0  0  0  0  0  0  0  0
    2.7439   -5.9183    0.7773 C   0  0  0  0  0  0  0  0  0  0  0  0
    1.4229   -5.8594    0.6520 N   0  0  0  0  0  0  0  0  0  0  0  0
    1.0018   -7.0398    1.2769 O   0  0  0  0  0  0  0  0  0  0  0  0
    2.1278   -7.6772    1.6859 C   0  0  0  0  0  0  0  0  0  0  0  0
    1.9614   -8.9491    2.3891 C   0  0  0  0  0  0  0  0  0  0  0  0
    3.0716   -9.8214    2.6215 C   0  0  0  0  0  0  0  0  0  0  0  0
    2.7265  -10.9724    3.2823 C   0  0  0  0  0  0  0  0  0  0  0  0
    1.0220  -11.0243    3.6313 S   0  0  0  0  0  0  0  0  0  0  0  0
    0.7873   -9.4703    2.8816 C   0  0  0  0  0  0  0  0  0  0  0  0
    3.2497   -7.0184    1.3992 N   0  0  0  0  0  0  0  0  0  0  0  0
    5.0258   -4.9419    0.3526 C   0  0  0  0  0  0  0  0  0  0  0  0
    5.8222   -3.9003   -0.1527 C   0  0  0  0  0  0  0  0  0  0  0  0
    5.3193   -2.7884   -0.7235 N   0  0  0  0  0  0  0  0  0  0  0  0
    3.5934   -1.7828   -1.2621 H   0  0  0  0  0  0  0  0  0  0  0  0
    2.0327   -3.5178   -0.4346 H   0  0  0  0  0  0  0  0  0  0  0  0
    4.0714   -9.5835    2.2867 H   0  0  0  0  0  0  0  0  0  0  0  0
    3.3635  -11.8017    3.5667 H   0  0  0  0  0  0  0  0  0  0  0  0
   -0.2056   -9.0346    2.8321 H   0  0  0  0  0  0  0  0  0  0  0  0
    5.4881   -5.8114    0.7934 H   0  0  0  0  0  0  0  0  0  0  0  0
    6.8971   -3.9662   -0.0963 H   0  0  0  0  0  0  0  0  0  0  0  0
  1 16  2  0
  1  2  1  0
  1 17  1  0
  2  3  2  0
  2 18  1  0
  3  4  1  0
  3 14  1  0
  4 13  1  0
  4  5  2  0
  5  6  1  0
  6  7  1  0
  7  8  1  0
  7 13  2  0
  8 12  2  0
  8  9  1  0
  9 10  2  0
  9 19  1  0
 10 11  1  0
 10 20  1  0
 11 12  1  0
 12 21  1  0
 14 15  2  0
 14 22  1  0
 15 16  1  0
 15 23  1  0
M  END
>  <i_m_ct_stereo_status>  (141) 
1

>  <s_m_source_file>  (141) 
/var/tmp/pbs.5076255.sched01/tmp5eg4wc32/41mqp692j8.sdf

>  <i_m_source_file_index>  (141) 
21

>  <i_lp_mmshare_version>  (141) 
48012

>  <i_f3d_flags>  (141) 
0

>  <s_epik_input>  (141) 
W2NIXTFbY0hdbltjSF1bY0hdYzEtYzJub2MobjIpLWMzW2NIXVtjSF1zW2NIXTM=

>  <s_epik_cmdline>  (141) 
J2VwaWtfcHl0aG9uJywgJy1waHQnLCAnMi4wJywgJy1waCcsICc3LjAnLCAnLXRuJywgJzgnLCAnLW1hJywgJzIwMCcsICctaW1hZScsICc8aW5maWxlLm1hZT4nLCAnLW9tYWUnLCAnPG91dGZpbGUubWFlPic=

>  <r_lp_tautomer_probability>  (141) 
1

>  <r_epik_Ionization_Penalty>  (141) 
0.000604584

>  <r_epik_Ionization_Penalty_Charging>  (141) 
0

>  <r_epik_Ionization_Penalty_Neutral>  (141) 
0.000604584

>  <r_epik_State_Penalty>  (141) 
0.000380979

>  <r_epik_Charging_Adjusted_Penalty>  (141) 
0.000380979

>  <i_epik_Tot_Q>  (141) 
0

>  <i_epik_Tot_abs_Q>  (141) 
0

>  <s_lp_Force_Field>  (141) 
OPLS3e

>  <r_lp_Energy>  (141) 
17.7692

>  <b_lp_Chiralities_Consistent>  (141) 
1

>  <s_lp_Variant>  (141) 
41:0-1

>  <s_i_glide_gridfile>  (141) 
pfpi4k_grid

>  <i_i_glide_lignum>  (141) 
21

>  <i_i_glide_rotatable_bonds>  (141) 
2

>  <r_i_docking_score>  (141) 
-3.36809

>  <r_i_glide_ligand_efficiency>  (141) 
-0.210506

>  <r_i_glide_ligand_efficiency_sa>  (141) 
-0.530441

>  <r_i_glide_ligand_efficiency_ln>  (141) 
-0.892779

>  <r_i_glide_gscore>  (141) 
-3.36809

>  <r_i_glide_lipo>  (141) 
-0.318264

>  <r_i_glide_hbond>  (141) 
0

>  <r_i_glide_metal>  (141) 
-0

>  <r_i_glide_rewards>  (141) 
-1.84596

>  <r_i_glide_evdw>  (141) 
-22.7892

>  <r_i_glide_ecoul>  (141) 
-3.49994

>  <r_i_glide_erotb>  (141) 
0.649132

>  <r_i_glide_esite>  (141) 
-0.188543

>  <r_i_glide_emodel>  (141) 
-32.1557

>  <r_i_glide_energy>  (141) 
-26.2891

>  <r_i_glide_einternal>  (141) 
0.170746

>  <r_i_glide_intrahb_reward>  (141) 
-0

>  <i_i_glide_confnum>  (141) 
5

>  <i_i_glide_posenum>  (141) 
34

>  <r_i_glide_eff_state_penalty>  (141) 
0

>  <ligand_id>  (141) 
41

>  <original_smiles>  (141) 
c1cc(-c2noc(-c3ccsc3)n2)ccn1

>  <smiles>  (141) 
[H]c1nc([H])c([H])c(-c2noc(-c3c([H])sc([H])c3[H])n2)c1[H]

$$$$
41:0:2
     RDKit          3D

 23 25  0  0  1  0  0  0  0  0999 V2000
    5.9134   -4.1149   -0.0426 C   0  0  0  0  0  0  0  0  0  0  0  0
    5.0538   -5.1057    0.4587 C   0  0  0  0  0  0  0  0  0  0  0  0
    3.6552   -4.9298    0.3491 C   0  0  0  0  0  0  0  0  0  0  0  0
    2.7203   -5.9540    0.8594 C   0  0  0  0  0  0  0  0  0  0  0  0
    1.4101   -5.8593    0.6676 N   0  0  0  0  0  0  0  0  0  0  0  0
    0.9194   -6.9993    1.3242 O   0  0  0  0  0  0  0  0  0  0  0  0
    2.0079   -7.6468    1.8157 C   0  0  0  0  0  0  0  0  0  0  0  0
    1.8238   -8.9054    2.5371 C   0  0  0  0  0  0  0  0  0  0  0  0
    0.5672   -9.3175    3.0910 C   0  0  0  0  0  0  0  0  0  0  0  0
    0.6369  -10.5247    3.7444 C   0  0  0  0  0  0  0  0  0  0  0  0
    2.2422  -11.1924    3.6799 S   0  0  0  0  0  0  0  0  0  0  0  0
    2.8148   -9.8278    2.7650 C   0  0  0  0  0  0  0  0  0  0  0  0
    3.1604   -7.0330    1.5537 N   0  0  0  0  0  0  0  0  0  0  0  0
    3.2085   -3.7367   -0.2662 C   0  0  0  0  0  0  0  0  0  0  0  0
    4.1496   -2.8078   -0.7383 C   0  0  0  0  0  0  0  0  0  0  0  0
    5.4821   -2.9836   -0.6344 N   0  0  0  0  0  0  0  0  0  0  0  0
    6.9820   -4.2375    0.0227 H   0  0  0  0  0  0  0  0  0  0  0  0
    5.4632   -5.9952    0.9129 H   0  0  0  0  0  0  0  0  0  0  0  0
   -0.3305   -8.7211    3.0177 H   0  0  0  0  0  0  0  0  0  0  0  0
   -0.1502  -11.0513    4.2743 H   0  0  0  0  0  0  0  0  0  0  0  0
    3.8484   -9.7674    2.4356 H   0  0  0  0  0  0  0  0  0  0  0  0
    2.1562   -3.5277   -0.3897 H   0  0  0  0  0  0  0  0  0  0  0  0
    3.8278   -1.8945   -1.2124 H   0  0  0  0  0  0  0  0  0  0  0  0
  1 16  2  0
  1  2  1  0
  1 17  1  0
  2  3  2  0
  2 18  1  0
  3  4  1  0
  3 14  1  0
  4 13  1  0
  4  5  2  0
  5  6  1  0
  6  7  1  0
  7  8  1  0
  7 13  2  0
  8 12  2  0
  8  9  1  0
  9 10  2  0
  9 19  1  0
 10 11  1  0
 10 20  1  0
 11 12  1  0
 12 21  1  0
 14 15  2  0
 14 22  1  0
 15 16  1  0
 15 23  1  0
M  END
>  <i_m_ct_stereo_status>  (142) 
1

>  <s_m_source_file>  (142) 
/var/tmp/pbs.5076255.sched01/tmp5eg4wc32/41mqp692j8.sdf

>  <i_m_source_file_index>  (142) 
21

>  <i_lp_mmshare_version>  (142) 
48012

>  <i_f3d_flags>  (142) 
0

>  <s_epik_input>  (142) 
W2NIXTFbY0hdbltjSF1bY0hdYzEtYzJub2MobjIpLWMzW2NIXVtjSF1zW2NIXTM=

>  <s_epik_cmdline>  (142) 
J2VwaWtfcHl0aG9uJywgJy1waHQnLCAnMi4wJywgJy1waCcsICc3LjAnLCAnLXRuJywgJzgnLCAnLW1hJywgJzIwMCcsICctaW1hZScsICc8aW5maWxlLm1hZT4nLCAnLW9tYWUnLCAnPG91dGZpbGUubWFlPic=

>  <r_lp_tautomer_probability>  (142) 
1

>  <r_epik_Ionization_Penalty>  (142) 
0.000604584

>  <r_epik_Ionization_Penalty_Charging>  (142) 
0

>  <r_epik_Ionization_Penalty_Neutral>  (142) 
0.000604584

>  <r_epik_State_Penalty>  (142) 
0.000380979

>  <r_epik_Charging_Adjusted_Penalty>  (142) 
0.000380979

>  <i_epik_Tot_Q>  (142) 
0

>  <i_epik_Tot_abs_Q>  (142) 
0

>  <s_lp_Force_Field>  (142) 
OPLS3e

>  <r_lp_Energy>  (142) 
17.7692

>  <b_lp_Chiralities_Consistent>  (142) 
1

>  <s_lp_Variant>  (142) 
41:0-1

>  <s_i_glide_gridfile>  (142) 
pfpi4k_grid

>  <i_i_glide_lignum>  (142) 
21

>  <i_i_glide_rotatable_bonds>  (142) 
2

>  <r_i_docking_score>  (142) 
-3.23179

>  <r_i_glide_ligand_efficiency>  (142) 
-0.201987

>  <r_i_glide_ligand_efficiency_sa>  (142) 
-0.508975

>  <r_i_glide_ligand_efficiency_ln>  (142) 
-0.85665

>  <r_i_glide_gscore>  (142) 
-3.23179

>  <r_i_glide_lipo>  (142) 
-0.182131

>  <r_i_glide_hbond>  (142) 
0

>  <r_i_glide_metal>  (142) 
-0

>  <r_i_glide_rewards>  (142) 
-1.84596

>  <r_i_glide_evdw>  (142) 
-21.9263

>  <r_i_glide_ecoul>  (142) 
-3.76135

>  <r_i_glide_erotb>  (142) 
0.649132

>  <r_i_glide_esite>  (142) 
-0.192307

>  <r_i_glide_emodel>  (142) 
-31.0896

>  <r_i_glide_energy>  (142) 
-25.6876

>  <r_i_glide_einternal>  (142) 
0.362042

>  <r_i_glide_intrahb_reward>  (142) 
-0

>  <i_i_glide_confnum>  (142) 
2

>  <i_i_glide_posenum>  (142) 
26

>  <r_i_glide_eff_state_penalty>  (142) 
0

>  <ligand_id>  (142) 
41

>  <original_smiles>  (142) 
c1cc(-c2noc(-c3ccsc3)n2)ccn1

>  <smiles>  (142) 
[H]c1nc([H])c([H])c(-c2noc(-c3c([H])sc([H])c3[H])n2)c1[H]

$$$$
42:0:0
     RDKit          3D

 35 37  0  0  1  0  0  0  0  0999 V2000
    0.1384   -7.5856    1.7990 C   0  0  0  0  0  0  0  0  0  0  0  0
    1.3837   -6.9515    1.4521 N   0  0  0  0  0  0  0  0  0  0  0  0
    2.6716   -7.2306    1.8570 C   0  0  0  0  0  0  0  0  0  0  0  0
    3.4798   -6.3014    1.2246 C   0  0  0  0  0  0  0  0  0  0  0  0
    4.9389   -6.2088    1.3416 C   0  0  0  0  0  0  0  0  0  0  0  0
    5.8093   -5.2376    0.9359 C   0  0  0  0  0  0  0  0  0  0  0  0
    5.5501   -3.9654    0.2187 C   0  0  0  0  0  0  0  0  0  0  0  0
    6.1973   -2.7798    0.6002 C   0  0  0  0  0  0  0  0  0  0  0  0
    5.8667   -1.5753   -0.0550 C   0  0  0  0  0  0  0  0  0  0  0  0
    4.9239   -1.4998   -1.0219 N   0  0  0  0  0  0  0  0  0  0  0  0
    4.3319   -2.6365   -1.4138 C   0  0  0  0  0  0  0  0  0  0  0  0
    4.6572   -3.8988   -0.8719 C   0  0  0  0  0  0  0  0  0  0  0  0
    7.1624   -5.6679    1.2868 C   0  0  0  0  0  0  0  0  0  0  0  0
    8.2261   -5.0661    1.1017 O   0  0  0  0  0  0  0  0  0  0  0  0
    7.0257   -6.8646    1.8696 N   0  0  0  0  0  0  0  0  0  0  0  0
    8.0581   -7.5918    2.6081 C   0  0  0  0  0  0  0  0  0  0  0  0
    5.6804   -7.2340    1.9102 N   0  0  0  0  0  0  0  0  0  0  0  0
    5.5049   -8.6319    1.5070 C   0  0  0  0  0  0  0  0  0  0  0  0
    2.5572   -5.4618    0.5471 C   0  0  0  0  0  0  0  0  0  0  0  0
    1.3238   -5.8887    0.6311 N   0  0  0  0  0  0  0  0  0  0  0  0
    0.3424   -8.4565    2.4212 H   0  0  0  0  0  0  0  0  0  0  0  0
   -0.3727   -7.8719    0.8802 H   0  0  0  0  0  0  0  0  0  0  0  0
   -0.4814   -6.8675    2.3382 H   0  0  0  0  0  0  0  0  0  0  0  0
    2.8641   -8.0479    2.5512 H   0  0  0  0  0  0  0  0  0  0  0  0
    6.9465   -2.7803    1.3787 H   0  0  0  0  0  0  0  0  0  0  0  0
    6.3811   -0.6616    0.1933 H   0  0  0  0  0  0  0  0  0  0  0  0
    3.5437   -2.5605   -2.1491 H   0  0  0  0  0  0  0  0  0  0  0  0
    4.1930   -4.7860   -1.2636 H   0  0  0  0  0  0  0  0  0  0  0  0
    9.0085   -7.0486    2.6242 H   0  0  0  0  0  0  0  0  0  0  0  0
    8.2381   -8.5537    2.1352 H   0  0  0  0  0  0  0  0  0  0  0  0
    7.7570   -7.7628    3.6427 H   0  0  0  0  0  0  0  0  0  0  0  0
    4.4619   -8.9271    1.5395 H   0  0  0  0  0  0  0  0  0  0  0  0
    6.0419   -9.3232    2.1603 H   0  0  0  0  0  0  0  0  0  0  0  0
    5.8325   -8.7679    0.4781 H   0  0  0  0  0  0  0  0  0  0  0  0
    2.6707   -4.5661   -0.0189 H   0  0  0  0  0  0  0  0  0  0  0  0
  1  2  1  0
  1 21  1  0
  1 22  1  0
  1 23  1  0
  2 20  1  0
  2  3  1  0
  3  4  2  0
  3 24  1  0
  4  5  1  0
  4 19  1  0
  5 17  1  0
  5  6  2  0
  6  7  1  0
  6 13  1  0
  7 12  1  0
  7  8  2  0
  8  9  1  0
  8 25  1  0
  9 10  2  0
  9 26  1  0
 10 11  1  0
 11 12  2  0
 11 27  1  0
 12 28  1  0
 13 14  2  0
 13 15  1  0
 15 16  1  0
 15 17  1  0
 16 29  1  0
 16 30  1  0
 16 31  1  0
 17 18  1  0
 18 32  1  0
 18 33  1  0
 18 34  1  0
 19 20  2  0
 19 35  1  0
M  END
>  <i_m_ct_stereo_status>  (143) 
1

>  <s_m_source_file>  (143) 
/var/tmp/pbs.5076255.sched01/tmp5eg4wc32/41mqp692j8.sdf

>  <i_m_source_file_index>  (143) 
22

>  <i_lp_mmshare_version>  (143) 
48012

>  <i_f3d_flags>  (143) 
0

>  <s_epik_input>  (143) 
W0NIM11uMVtjSF1jKFtjSF1uMSktYzJjKGMoPU8pbihbQ0gzXSluMltDSDNdKS1jM1tjSF1bY0hdbltjSF1bY0hdMw==

>  <s_epik_cmdline>  (143) 
J2VwaWtfcHl0aG9uJywgJy1waHQnLCAnMi4wJywgJy1waCcsICc3LjAnLCAnLXRuJywgJzgnLCAnLW1hJywgJzIwMCcsICctaW1hZScsICc8aW5maWxlLm1hZT4nLCAnLW9tYWUnLCAnPG91dGZpbGUubWFlPic=

>  <r_lp_tautomer_probability>  (143) 
1

>  <r_epik_Ionization_Penalty>  (143) 
0.00128742

>  <r_epik_Ionization_Penalty_Charging>  (143) 
2.20751e-06

>  <r_epik_Ionization_Penalty_Neutral>  (143) 
0.00128521

>  <r_epik_State_Penalty>  (143) 
0.000761515

>  <r_epik_Charging_Adjusted_Penalty>  (143) 
0.000763722

>  <i_epik_Tot_Q>  (143) 
0

>  <i_epik_Tot_abs_Q>  (143) 
0

>  <s_lp_Force_Field>  (143) 
OPLS3e

>  <r_lp_Energy>  (143) 
20.4052

>  <b_lp_Chiralities_Consistent>  (143) 
1

>  <s_lp_Variant>  (143) 
42:0-1

>  <s_i_glide_gridfile>  (143) 
pfpi4k_grid

>  <i_i_glide_lignum>  (143) 
22

>  <i_i_glide_rotatable_bonds>  (143) 
2

>  <r_i_docking_score>  (143) 
-3.85924

>  <r_i_glide_ligand_efficiency>  (143) 
-0.192962

>  <r_i_glide_ligand_efficiency_sa>  (143) 
-0.523779

>  <r_i_glide_ligand_efficiency_ln>  (143) 
-0.96584

>  <r_i_glide_gscore>  (143) 
-3.85924

>  <r_i_glide_lipo>  (143) 
-0.493171

>  <r_i_glide_hbond>  (143) 
-0.16

>  <r_i_glide_metal>  (143) 
-0

>  <r_i_glide_rewards>  (143) 
-1.72801

>  <r_i_glide_evdw>  (143) 
-24.2137

>  <r_i_glide_ecoul>  (143) 
-4.72795

>  <r_i_glide_erotb>  (143) 
0.492692

>  <r_i_glide_esite>  (143) 
-0.0508686

>  <r_i_glide_emodel>  (143) 
-34.7082

>  <r_i_glide_energy>  (143) 
-28.9416

>  <r_i_glide_einternal>  (143) 
1.05804

>  <r_i_glide_intrahb_reward>  (143) 
-0

>  <i_i_glide_confnum>  (143) 
3

>  <i_i_glide_posenum>  (143) 
8

>  <r_i_glide_eff_state_penalty>  (143) 
0

>  <ligand_id>  (143) 
42

>  <original_smiles>  (143) 
Cn1cc(-c2c(-c3ccncc3)c(=O)n(C)n2C)cn1

>  <smiles>  (143) 
[H]c1nc([H])c([H])c(-c2c(-c3c([H])nn(C([H])([H])[H])c3[H])n(C([H])([H])[H])n(C([H])([H])[H])c2=O)c1[H]

$$$$
42:0:1
     RDKit          3D

 35 37  0  0  1  0  0  0  0  0999 V2000
    0.2038   -7.5886    1.9348 C   0  0  0  0  0  0  0  0  0  0  0  0
    1.4230   -6.9044    1.5253 N   0  0  0  0  0  0  0  0  0  0  0  0
    2.7251   -7.1361    1.9192 C   0  0  0  0  0  0  0  0  0  0  0  0
    3.4989   -6.2501    1.2122 C   0  0  0  0  0  0  0  0  0  0  0  0
    4.9471   -6.0998    1.2908 C   0  0  0  0  0  0  0  0  0  0  0  0
    5.7713   -5.1292    0.8028 C   0  0  0  0  0  0  0  0  0  0  0  0
    5.4224   -3.8609    0.1191 C   0  0  0  0  0  0  0  0  0  0  0  0
    4.2783   -3.1199    0.4695 C   0  0  0  0  0  0  0  0  0  0  0  0
    3.9563   -1.9735   -0.2791 C   0  0  0  0  0  0  0  0  0  0  0  0
    4.7316   -1.4965   -1.2753 N   0  0  0  0  0  0  0  0  0  0  0  0
    5.8502   -2.1801   -1.5692 C   0  0  0  0  0  0  0  0  0  0  0  0
    6.2376   -3.3535   -0.9142 C   0  0  0  0  0  0  0  0  0  0  0  0
    7.1406   -5.4914    1.1472 C   0  0  0  0  0  0  0  0  0  0  0  0
    8.1876   -4.8650    0.9239 O   0  0  0  0  0  0  0  0  0  0  0  0
    7.0569   -6.6668    1.7903 N   0  0  0  0  0  0  0  0  0  0  0  0
    8.1332   -7.3253    2.5289 C   0  0  0  0  0  0  0  0  0  0  0  0
    5.7298   -7.0798    1.8790 N   0  0  0  0  0  0  0  0  0  0  0  0
    5.5914   -8.5023    1.5528 C   0  0  0  0  0  0  0  0  0  0  0  0
    2.5719   -5.5157    0.4113 C   0  0  0  0  0  0  0  0  0  0  0  0
    1.3218   -5.9236    0.6147 N   0  0  0  0  0  0  0  0  0  0  0  0
    0.4476   -8.4464    2.5567 H   0  0  0  0  0  0  0  0  0  0  0  0
   -0.3296   -7.9170    1.0398 H   0  0  0  0  0  0  0  0  0  0  0  0
   -0.4298   -6.8925    2.4862 H   0  0  0  0  0  0  0  0  0  0  0  0
    2.9544   -7.9101    2.6346 H   0  0  0  0  0  0  0  0  0  0  0  0
    3.6381   -3.4344    1.2843 H   0  0  0  0  0  0  0  0  0  0  0  0
    3.0428   -1.4329   -0.0809 H   0  0  0  0  0  0  0  0  0  0  0  0
    6.4907   -1.7495   -2.3147 H   0  0  0  0  0  0  0  0  0  0  0  0
    7.1481   -3.8519   -1.2265 H   0  0  0  0  0  0  0  0  0  0  0  0
    9.0625   -6.7523    2.5002 H   0  0  0  0  0  0  0  0  0  0  0  0
    8.3533   -8.2945    2.0947 H   0  0  0  0  0  0  0  0  0  0  0  0
    7.8691   -7.4632    3.5758 H   0  0  0  0  0  0  0  0  0  0  0  0
    4.5601   -8.8308    1.6338 H   0  0  0  0  0  0  0  0  0  0  0  0
    6.1809   -9.1312    2.2262 H   0  0  0  0  0  0  0  0  0  0  0  0
    5.9094   -8.6853    0.5230 H   0  0  0  0  0  0  0  0  0  0  0  0
    2.7551   -4.7527   -0.3330 H   0  0  0  0  0  0  0  0  0  0  0  0
  1  2  1  0
  1 21  1  0
  1 22  1  0
  1 23  1  0
  2 20  1  0
  2  3  1  0
  3  4  2  0
  3 24  1  0
  4  5  1  0
  4 19  1  0
  5 17  1  0
  5  6  2  0
  6  7  1  0
  6 13  1  0
  7 12  1  0
  7  8  2  0
  8  9  1  0
  8 25  1  0
  9 10  2  0
  9 26  1  0
 10 11  1  0
 11 12  2  0
 11 27  1  0
 12 28  1  0
 13 14  2  0
 13 15  1  0
 15 16  1  0
 15 17  1  0
 16 29  1  0
 16 30  1  0
 16 31  1  0
 17 18  1  0
 18 32  1  0
 18 33  1  0
 18 34  1  0
 19 20  2  0
 19 35  1  0
M  END
>  <i_m_ct_stereo_status>  (144) 
1

>  <s_m_source_file>  (144) 
/var/tmp/pbs.5076255.sched01/tmp5eg4wc32/41mqp692j8.sdf

>  <i_m_source_file_index>  (144) 
22

>  <i_lp_mmshare_version>  (144) 
48012

>  <i_f3d_flags>  (144) 
0

>  <s_epik_input>  (144) 
W0NIM11uMVtjSF1jKFtjSF1uMSktYzJjKGMoPU8pbihbQ0gzXSluMltDSDNdKS1jM1tjSF1bY0hdbltjSF1bY0hdMw==

>  <s_epik_cmdline>  (144) 
J2VwaWtfcHl0aG9uJywgJy1waHQnLCAnMi4wJywgJy1waCcsICc3LjAnLCAnLXRuJywgJzgnLCAnLW1hJywgJzIwMCcsICctaW1hZScsICc8aW5maWxlLm1hZT4nLCAnLW9tYWUnLCAnPG91dGZpbGUubWFlPic=

>  <r_lp_tautomer_probability>  (144) 
1

>  <r_epik_Ionization_Penalty>  (144) 
0.00128742

>  <r_epik_Ionization_Penalty_Charging>  (144) 
2.20751e-06

>  <r_epik_Ionization_Penalty_Neutral>  (144) 
0.00128521

>  <r_epik_State_Penalty>  (144) 
0.000761515

>  <r_epik_Charging_Adjusted_Penalty>  (144) 
0.000763722

>  <i_epik_Tot_Q>  (144) 
0

>  <i_epik_Tot_abs_Q>  (144) 
0

>  <s_lp_Force_Field>  (144) 
OPLS3e

>  <r_lp_Energy>  (144) 
20.4052

>  <b_lp_Chiralities_Consistent>  (144) 
1

>  <s_lp_Variant>  (144) 
42:0-1

>  <s_i_glide_gridfile>  (144) 
pfpi4k_grid

>  <i_i_glide_lignum>  (144) 
22

>  <i_i_glide_rotatable_bonds>  (144) 
2

>  <r_i_docking_score>  (144) 
-3.80319

>  <r_i_glide_ligand_efficiency>  (144) 
-0.190159

>  <r_i_glide_ligand_efficiency_sa>  (144) 
-0.516172

>  <r_i_glide_ligand_efficiency_ln>  (144) 
-0.951813

>  <r_i_glide_gscore>  (144) 
-3.80319

>  <r_i_glide_lipo>  (144) 
-0.571329

>  <r_i_glide_hbond>  (144) 
-0.16

>  <r_i_glide_metal>  (144) 
-0

>  <r_i_glide_rewards>  (144) 
-1.73822

>  <r_i_glide_evdw>  (144) 
-23.4195

>  <r_i_glide_ecoul>  (144) 
-4.04479

>  <r_i_glide_erotb>  (144) 
0.492692

>  <r_i_glide_esite>  (144) 
-0.048632

>  <r_i_glide_emodel>  (144) 
-33.9752

>  <r_i_glide_energy>  (144) 
-27.4643

>  <r_i_glide_einternal>  (144) 
0.0782019

>  <r_i_glide_intrahb_reward>  (144) 
-0

>  <i_i_glide_confnum>  (144) 
3

>  <i_i_glide_posenum>  (144) 
1

>  <r_i_glide_eff_state_penalty>  (144) 
0

>  <ligand_id>  (144) 
42

>  <original_smiles>  (144) 
Cn1cc(-c2c(-c3ccncc3)c(=O)n(C)n2C)cn1

>  <smiles>  (144) 
[H]c1nc([H])c([H])c(-c2c(-c3c([H])nn(C([H])([H])[H])c3[H])n(C([H])([H])[H])n(C([H])([H])[H])c2=O)c1[H]

$$$$
42:0:2
     RDKit          3D

 35 37  0  0  1  0  0  0  0  0999 V2000
   -1.2453   -8.3274    2.5533 C   0  0  0  0  0  0  0  0  0  0  0  0
    0.0091   -7.7581    2.1153 N   0  0  0  0  0  0  0  0  0  0  0  0
    1.2909   -8.1725    2.4050 C   0  0  0  0  0  0  0  0  0  0  0  0
    2.1308   -7.3210    1.7024 C   0  0  0  0  0  0  0  0  0  0  0  0
    3.5885   -7.3540    1.7115 C   0  0  0  0  0  0  0  0  0  0  0  0
    4.4875   -6.4258    1.2916 C   0  0  0  0  0  0  0  0  0  0  0  0
    4.2563   -5.0439    0.8011 C   0  0  0  0  0  0  0  0  0  0  0  0
    3.2686   -4.2093    1.3634 C   0  0  0  0  0  0  0  0  0  0  0  0
    3.0637   -2.9355    0.8054 C   0  0  0  0  0  0  0  0  0  0  0  0
    3.7961   -2.4382   -0.2119 N   0  0  0  0  0  0  0  0  0  0  0  0
    4.7661   -3.2157   -0.7286 C   0  0  0  0  0  0  0  0  0  0  0  0
    5.0264   -4.5144   -0.2630 C   0  0  0  0  0  0  0  0  0  0  0  0
    5.8236   -6.9766    1.4878 C   0  0  0  0  0  0  0  0  0  0  0  0
    6.9119   -6.4371    1.2842 O   0  0  0  0  0  0  0  0  0  0  0  0
    5.6411   -8.2187    1.9728 N   0  0  0  0  0  0  0  0  0  0  0  0
    6.6613   -9.0924    2.5375 C   0  0  0  0  0  0  0  0  0  0  0  0
    4.2829   -8.4905    2.1119 N   0  0  0  0  0  0  0  0  0  0  0  0
    3.9593   -9.8228    1.6171 C   0  0  0  0  0  0  0  0  0  0  0  0
    1.2532   -6.4486    1.0020 C   0  0  0  0  0  0  0  0  0  0  0  0
   -0.0208   -6.6824    1.2928 N   0  0  0  0  0  0  0  0  0  0  0  0
   -1.0662   -9.2478    3.1182 H   0  0  0  0  0  0  0  0  0  0  0  0
   -1.8646   -8.5663    1.6843 H   0  0  0  0  0  0  0  0  0  0  0  0
   -1.7739   -7.6105    3.1870 H   0  0  0  0  0  0  0  0  0  0  0  0
    1.4854   -9.0149    3.0464 H   0  0  0  0  0  0  0  0  0  0  0  0
    2.6925   -4.5274    2.2211 H   0  0  0  0  0  0  0  0  0  0  0  0
    2.2544   -2.3117    1.1647 H   0  0  0  0  0  0  0  0  0  0  0  0
    5.3584   -2.7759   -1.5245 H   0  0  0  0  0  0  0  0  0  0  0  0
    5.8044   -5.1049   -0.7278 H   0  0  0  0  0  0  0  0  0  0  0  0
    7.6550   -8.6313    2.5210 H   0  0  0  0  0  0  0  0  0  0  0  0
    6.7419  -10.0246    1.9781 H   0  0  0  0  0  0  0  0  0  0  0  0
    6.4438   -9.3375    3.5775 H   0  0  0  0  0  0  0  0  0  0  0  0
    2.9007  -10.0469    1.7212 H   0  0  0  0  0  0  0  0  0  0  0  0
    4.5044  -10.6064    2.1517 H   0  0  0  0  0  0  0  0  0  0  0  0
    4.1982   -9.8791    0.5516 H   0  0  0  0  0  0  0  0  0  0  0  0
    1.4778   -5.6632    0.2949 H   0  0  0  0  0  0  0  0  0  0  0  0
  1  2  1  0
  1 21  1  0
  1 22  1  0
  1 23  1  0
  2 20  1  0
  2  3  1  0
  3  4  2  0
  3 24  1  0
  4  5  1  0
  4 19  1  0
  5 17  1  0
  5  6  2  0
  6  7  1  0
  6 13  1  0
  7 12  1  0
  7  8  2  0
  8  9  1  0
  8 25  1  0
  9 10  2  0
  9 26  1  0
 10 11  1  0
 11 12  2  0
 11 27  1  0
 12 28  1  0
 13 14  2  0
 13 15  1  0
 15 16  1  0
 15 17  1  0
 16 29  1  0
 16 30  1  0
 16 31  1  0
 17 18  1  0
 18 32  1  0
 18 33  1  0
 18 34  1  0
 19 20  2  0
 19 35  1  0
M  END
>  <i_m_ct_stereo_status>  (145) 
1

>  <s_m_source_file>  (145) 
/var/tmp/pbs.5076255.sched01/tmp5eg4wc32/41mqp692j8.sdf

>  <i_m_source_file_index>  (145) 
22

>  <i_lp_mmshare_version>  (145) 
48012

>  <i_f3d_flags>  (145) 
0

>  <s_epik_input>  (145) 
W0NIM11uMVtjSF1jKFtjSF1uMSktYzJjKGMoPU8pbihbQ0gzXSluMltDSDNdKS1jM1tjSF1bY0hdbltjSF1bY0hdMw==

>  <s_epik_cmdline>  (145) 
J2VwaWtfcHl0aG9uJywgJy1waHQnLCAnMi4wJywgJy1waCcsICc3LjAnLCAnLXRuJywgJzgnLCAnLW1hJywgJzIwMCcsICctaW1hZScsICc8aW5maWxlLm1hZT4nLCAnLW9tYWUnLCAnPG91dGZpbGUubWFlPic=

>  <r_lp_tautomer_probability>  (145) 
1

>  <r_epik_Ionization_Penalty>  (145) 
0.00128742

>  <r_epik_Ionization_Penalty_Charging>  (145) 
2.20751e-06

>  <r_epik_Ionization_Penalty_Neutral>  (145) 
0.00128521

>  <r_epik_State_Penalty>  (145) 
0.000761515

>  <r_epik_Charging_Adjusted_Penalty>  (145) 
0.000763722

>  <i_epik_Tot_Q>  (145) 
0

>  <i_epik_Tot_abs_Q>  (145) 
0

>  <s_lp_Force_Field>  (145) 
OPLS3e

>  <r_lp_Energy>  (145) 
20.4052

>  <b_lp_Chiralities_Consistent>  (145) 
1

>  <s_lp_Variant>  (145) 
42:0-1

>  <s_i_glide_gridfile>  (145) 
pfpi4k_grid

>  <i_i_glide_lignum>  (145) 
22

>  <i_i_glide_rotatable_bonds>  (145) 
2

>  <r_i_docking_score>  (145) 
-3.39774

>  <r_i_glide_ligand_efficiency>  (145) 
-0.169887

>  <r_i_glide_ligand_efficiency_sa>  (145) 
-0.461144

>  <r_i_glide_ligand_efficiency_ln>  (145) 
-0.850341

>  <r_i_glide_gscore>  (145) 
-3.39774

>  <r_i_glide_lipo>  (145) 
-0.386042

>  <r_i_glide_hbond>  (145) 
-0.166309

>  <r_i_glide_metal>  (145) 
-0

>  <r_i_glide_rewards>  (145) 
-1.64273

>  <r_i_glide_evdw>  (145) 
-24.7335

>  <r_i_glide_ecoul>  (145) 
-2.54714

>  <r_i_glide_erotb>  (145) 
0.492692

>  <r_i_glide_esite>  (145) 
-0.0766001

>  <r_i_glide_emodel>  (145) 
-33.4531

>  <r_i_glide_energy>  (145) 
-27.2806

>  <r_i_glide_einternal>  (145) 
0.130165

>  <r_i_glide_intrahb_reward>  (145) 
-0

>  <i_i_glide_confnum>  (145) 
3

>  <i_i_glide_posenum>  (145) 
18

>  <r_i_glide_eff_state_penalty>  (145) 
0

>  <ligand_id>  (145) 
42

>  <original_smiles>  (145) 
Cn1cc(-c2c(-c3ccncc3)c(=O)n(C)n2C)cn1

>  <smiles>  (145) 
[H]c1nc([H])c([H])c(-c2c(-c3c([H])nn(C([H])([H])[H])c3[H])n(C([H])([H])[H])n(C([H])([H])[H])c2=O)c1[H]

$$$$
43:0:0
     RDKit          3D

103108  0  0  1  0  0  0  0  0999 V2000
    2.3551    1.0974    1.5012 C   0  0  0  0  0  0  0  0  0  0  0  0
    2.0051    0.7564    2.8289 O   0  0  0  0  0  0  0  0  0  0  0  0
    0.6560    1.0510    3.1540 C   0  0  0  0  0  0  0  0  0  0  0  0
    0.2959    0.6783    4.6283 C   0  0  2  0  0  0  0  0  0  0  0  0
    0.1986   -0.9094    4.6963 C   0  0  1  0  0  0  0  0  0  0  0  0
    1.3357   -1.6266    4.2366 O   0  0  0  0  0  0  0  0  0  0  0  0
    1.1977   -3.0113    4.0911 C   0  0  2  0  0  0  0  0  0  0  0  0
    1.0555   -3.6154    5.3597 O   0  0  0  0  0  0  0  0  0  0  0  0
    0.8978   -5.0244    5.3301 C   0  0  0  0  0  0  0  0  0  0  0  0
    2.1609   -5.6716    4.7464 C   0  0  0  0  0  0  0  0  0  0  0  0
    2.4891   -5.0683    3.3771 C   0  0  1  0  0  0  0  0  0  0  0  0
    1.5029   -5.5100    2.4399 O   0  0  0  0  0  0  0  0  0  0  0  0
    1.8258   -6.0152    1.2468 C   0  0  0  0  0  0  0  0  0  0  0  0
    3.3023   -6.2775    0.9789 C   0  0  0  0  0  0  0  0  0  0  0  0
    0.9696   -6.2529    0.3593 O   0  0  0  0  0  0  0  0  0  0  0  0
    2.5196   -3.5259    3.4799 C   0  0  1  0  0  0  0  0  0  0  0  0
    2.7182   -2.9411    2.1983 O   0  0  0  0  0  0  0  0  0  0  0  0
    3.9427   -2.7304    1.6677 C   0  0  0  0  0  0  0  0  0  0  0  0
    5.1279   -3.1026    2.5470 C   0  0  0  0  0  0  0  0  0  0  0  0
    4.1326   -2.2777    0.5298 O   0  0  0  0  0  0  0  0  0  0  0  0
   -0.2187   -1.3076    6.1185 C   0  0  0  0  0  0  0  0  0  0  0  0
   -0.5844   -0.2765    6.8642 C   0  0  0  0  0  0  0  0  0  0  0  0
   -1.7691    0.3951    6.1709 C   0  0  0  0  0  0  0  0  0  0  0  0
   -1.1938    1.1563    4.9557 C   0  0  1  0  0  0  0  0  0  0  0  0
   -1.4740    2.6937    5.0109 C   0  0  1  0  0  0  0  0  0  0  0  0
   -2.6292    2.9492    4.2091 O   0  0  0  0  0  0  0  0  0  0  0  0
   -2.3978    3.0128    2.8058 C   0  0  0  0  0  0  0  0  0  0  0  0
   -1.8462    3.3888    6.3706 C   0  0  0  0  0  0  0  0  0  0  0  0
   -0.9801    3.4309    7.6735 C   0  0  2  0  0  0  0  0  0  0  0  0
    0.5192    3.8166    7.6432 C   0  0  2  0  0  0  0  0  0  0  0  0
    1.1283    3.9701    6.2611 C   0  0  0  0  0  0  0  0  0  0  0  0
    1.7374    2.7329    5.5495 C   0  0  1  0  0  0  0  0  0  0  0  0
    3.1578    2.8935    5.6632 O   0  0  0  0  0  0  0  0  0  0  0  0
    3.7631    3.7637    4.7152 C   0  0  0  0  0  0  0  0  0  0  0  0
    1.2731    1.2085    5.8037 C   0  0  2  0  0  0  0  0  0  0  0  0
    2.6240    0.3924    5.7811 C   0  0  0  0  0  0  0  0  0  0  0  0
    0.5490    0.7360    7.1808 C   0  0  1  0  0  0  0  0  0  0  0  0
    0.3456    1.5781    8.5068 C   0  0  2  0  0  0  0  0  0  0  0  0
    0.6429    0.7035    9.7560 C   0  0  0  0  0  0  0  0  0  0  0  0
   -0.1385   -0.4830    9.8195 O   0  0  0  0  0  0  0  0  0  0  0  0
   -0.1743   -1.2501   10.9223 C   0  0  0  0  0  0  0  0  0  0  0  0
    0.4790   -0.6587   12.1713 C   0  0  0  0  0  0  0  0  0  0  0  0
   -0.7178   -2.3634   10.9580 O   0  0  0  0  0  0  0  0  0  0  0  0
   -1.0508    2.2390    8.6454 C   0  0  1  0  0  0  0  0  0  0  0  0
   -1.2178    2.7625    9.9696 O   0  0  0  0  0  0  0  0  0  0  0  0
   -2.5613    3.0409   10.3531 C   0  0  0  0  0  0  0  0  0  0  0  0
    1.2358    2.8172    8.5666 C   0  0  1  0  0  0  0  0  0  0  0  0
    2.6122    2.5430    8.3254 O   0  0  0  0  0  0  0  0  0  0  0  0
    3.5071    3.6020    8.6403 C   0  0  0  0  0  0  0  0  0  0  0  0
    3.4127    0.8939    1.3231 H   0  0  0  0  0  0  0  0  0  0  0  0
    2.1856    2.1598    1.3317 H   0  0  0  0  0  0  0  0  0  0  0  0
    1.7755    0.5326    0.7703 H   0  0  0  0  0  0  0  0  0  0  0  0
    0.4479    2.1013    2.9365 H   0  0  0  0  0  0  0  0  0  0  0  0
    0.0171    0.4953    2.4720 H   0  0  0  0  0  0  0  0  0  0  0  0
   -0.6131   -1.2101    4.0442 H   0  0  0  0  0  0  0  0  0  0  0  0
    0.3170   -3.2342    3.4714 H   0  0  0  0  0  0  0  0  0  0  0  0
    0.7401   -5.3755    6.3501 H   0  0  0  0  0  0  0  0  0  0  0  0
    0.0174   -5.2827    4.7433 H   0  0  0  0  0  0  0  0  0  0  0  0
    3.0019   -5.4867    5.4141 H   0  0  0  0  0  0  0  0  0  0  0  0
    2.0496   -6.7556    4.6757 H   0  0  0  0  0  0  0  0  0  0  0  0
    3.4745   -5.4384    3.0922 H   0  0  0  0  0  0  0  0  0  0  0  0
    3.7107   -6.9878    1.7082 H   0  0  0  0  0  0  0  0  0  0  0  0
    3.8865   -5.3533    1.0401 H   0  0  0  0  0  0  0  0  0  0  0  0
    3.4839   -6.6844   -0.0162 H   0  0  0  0  0  0  0  0  0  0  0  0
    3.3146   -3.2008    4.1557 H   0  0  0  0  0  0  0  0  0  0  0  0
    5.0813   -2.5567    3.4925 H   0  0  0  0  0  0  0  0  0  0  0  0
    6.0769   -2.8913    2.0407 H   0  0  0  0  0  0  0  0  0  0  0  0
    5.1320   -4.1700    2.7655 H   0  0  0  0  0  0  0  0  0  0  0  0
   -0.9708   -2.0803    5.9834 H   0  0  0  0  0  0  0  0  0  0  0  0
   -2.4284   -0.3889    5.7959 H   0  0  0  0  0  0  0  0  0  0  0  0
   -2.4474    0.9713    6.7673 H   0  0  0  0  0  0  0  0  0  0  0  0
   -1.7863    0.7736    4.1261 H   0  0  0  0  0  0  0  0  0  0  0  0
   -0.6741    3.2357    4.5204 H   0  0  0  0  0  0  0  0  0  0  0  0
   -3.3465    3.1346    2.2822 H   0  0  0  0  0  0  0  0  0  0  0  0
   -1.9379    2.1026    2.4215 H   0  0  0  0  0  0  0  0  0  0  0  0
   -1.7559    3.8560    2.5476 H   0  0  0  0  0  0  0  0  0  0  0  0
   -1.9443    4.4328    6.0922 H   0  0  0  0  0  0  0  0  0  0  0  0
   -2.8563    3.0943    6.6626 H   0  0  0  0  0  0  0  0  0  0  0  0
   -1.4461    4.2585    8.2111 H   0  0  0  0  0  0  0  0  0  0  0  0
    0.6050    4.7975    8.1146 H   0  0  0  0  0  0  0  0  0  0  0  0
    0.4572    4.5298    5.6177 H   0  0  0  0  0  0  0  0  0  0  0  0
    1.9249    4.6971    6.3958 H   0  0  0  0  0  0  0  0  0  0  0  0
    1.5608    2.9365    4.5023 H   0  0  0  0  0  0  0  0  0  0  0  0
    4.8244    3.8294    4.9425 H   0  0  0  0  0  0  0  0  0  0  0  0
    3.3567    4.7740    4.7604 H   0  0  0  0  0  0  0  0  0  0  0  0
    3.6481    3.3910    3.6948 H   0  0  0  0  0  0  0  0  0  0  0  0
    3.3147    0.7345    6.5528 H   0  0  0  0  0  0  0  0  0  0  0  0
    3.1519    0.4624    4.8341 H   0  0  0  0  0  0  0  0  0  0  0  0
    2.5065   -0.6632    6.0034 H   0  0  0  0  0  0  0  0  0  0  0  0
    1.2745    0.0330    7.5832 H   0  0  0  0  0  0  0  0  0  0  0  0
    1.6963    0.4244    9.7571 H   0  0  0  0  0  0  0  0  0  0  0  0
    0.4639    1.3064   10.6458 H   0  0  0  0  0  0  0  0  0  0  0  0
   -0.0531    0.2495   12.4702 H   0  0  0  0  0  0  0  0  0  0  0  0
    1.5292   -0.4064   11.9941 H   0  0  0  0  0  0  0  0  0  0  0  0
    0.4491   -1.3435   13.0255 H   0  0  0  0  0  0  0  0  0  0  0  0
   -1.8711    1.5423    8.5369 H   0  0  0  0  0  0  0  0  0  0  0  0
   -2.5782    3.4786   11.3508 H   0  0  0  0  0  0  0  0  0  0  0  0
   -3.1627    2.1328   10.3810 H   0  0  0  0  0  0  0  0  0  0  0  0
   -3.0411    3.7476    9.6767 H   0  0  0  0  0  0  0  0  0  0  0  0
    1.1830    3.2059    9.5850 H   0  0  0  0  0  0  0  0  0  0  0  0
    4.5172    3.3025    8.3599 H   0  0  0  0  0  0  0  0  0  0  0  0
    3.5034    3.8279    9.7067 H   0  0  0  0  0  0  0  0  0  0  0  0
    3.2793    4.5168    8.0953 H   0  0  0  0  0  0  0  0  0  0  0  0
  1  2  1  0
  1 50  1  0
  1 51  1  0
  1 52  1  0
  2  3  1  0
  4  3  1  6
  3 53  1  0
  3 54  1  0
  4 24  1  0
  4 35  1  0
  4  5  1  0
  5  6  1  0
  5 21  1  0
  5 55  1  6
  6  7  1  0
  7 16  1  0
  7  8  1  0
  7 56  1  6
  8  9  1  0
  9 10  1  0
  9 57  1  0
  9 58  1  0
 10 11  1  0
 10 59  1  0
 10 60  1  0
 11 12  1  0
 11 16  1  0
 11 61  1  6
 12 13  1  0
 13 14  1  0
 13 15  2  0
 14 62  1  0
 14 63  1  0
 14 64  1  0
 16 17  1  0
 16 65  1  1
 17 18  1  0
 18 19  1  0
 18 20  2  0
 19 66  1  0
 19 67  1  0
 19 68  1  0
 21 22  2  0
 21 69  1  0
 22 37  1  0
 22 23  1  0
 23 24  1  0
 23 70  1  0
 23 71  1  0
 24 25  1  0
 24 72  1  6
 25 26  1  0
 25 28  1  0
 25 73  1  6
 26 27  1  0
 27 74  1  0
 27 75  1  0
 27 76  1  0
 28 29  1  0
 28 77  1  0
 28 78  1  0
 29 44  1  0
 29 30  1  0
 29 79  1  1
 30 47  1  0
 30 31  1  0
 30 80  1  1
 31 32  1  0
 31 81  1  0
 31 82  1  0
 32 33  1  0
 32 35  1  0
 32 83  1  6
 33 34  1  0
 34 84  1  0
 34 85  1  0
 34 86  1  0
 35 36  1  6
 35 37  1  0
 36 87  1  0
 36 88  1  0
 36 89  1  0
 37 38  1  0
 37 90  1  1
 38 39  1  1
 38 44  1  0
 38 47  1  0
 39 40  1  0
 39 91  1  0
 39 92  1  0
 40 41  1  0
 41 42  1  0
 41 43  2  0
 42 93  1  0
 42 94  1  0
 42 95  1  0
 44 45  1  0
 44 96  1  6
 45 46  1  0
 46 97  1  0
 46 98  1  0
 46 99  1  0
 47 48  1  0
 47100  1  1
 48 49  1  0
 49101  1  0
 49102  1  0
 49103  1  0
M  END
>  <i_m_ct_stereo_status>  (146) 
1

>  <s_m_source_file>  (146) 
/var/tmp/pbs.5076255.sched01/tmp5eg4wc32/41mqp692j8.sdf

>  <i_m_source_file_index>  (146) 
23

>  <i_lp_mmshare_version>  (146) 
48012

>  <i_f3d_flags>  (146) 
0

>  <s_epik_input>  (146) 
W0NIM11DKD1PKU9bQ0gyXVtDQF0xKFtDQEhdMk9bQ0gzXSlbQ0BASF0oT1tDSDNdKVtDQEhdKFtDSDJdW0NAQEhdM09bQ0gzXSlbQ0BASF0yW0NIMl1bQ0BASF0oT1tDSDNdKVtDQEBdNChbQ0gzXSlbQ0BASF0xQyhbQ0gyXVtDQEBIXTNbQ0BAXTQ1W0NIMl1PW0NIM10pPVtDSF1bQ0BASF01T1tDQEBIXTZPW0NIMl1bQ0gyXVtDQEBIXShPQyg9TylbQ0gzXSlbQ0BIXTZPQyg9TylbQ0gzXQ==

>  <s_epik_cmdline>  (146) 
J2VwaWtfcHl0aG9uJywgJy1waHQnLCAnMi4wJywgJy1waCcsICc3LjAnLCAnLXRuJywgJzgnLCAnLW1hJywgJzIwMCcsICctaW1hZScsICc8aW5maWxlLm1hZT4nLCAnLW9tYWUnLCAnPG91dGZpbGUubWFlPic=

>  <r_lp_tautomer_probability>  (146) 
1

>  <r_epik_Ionization_Penalty>  (146) 
4.72295e-11

>  <r_epik_Ionization_Penalty_Charging>  (146) 
0

>  <r_epik_Ionization_Penalty_Neutral>  (146) 
4.72295e-11

>  <r_epik_State_Penalty>  (146) 
-0

>  <r_epik_Charging_Adjusted_Penalty>  (146) 
0

>  <i_epik_Tot_Q>  (146) 
0

>  <i_epik_Tot_abs_Q>  (146) 
0

>  <s_epik_Chemistry_Notes>  (146) 
This compound has an ester and may undergo hydrolysis at high or low pH. This compound contains an acetal/aminal-like group ( X-CH(R)-Y where X, Y are N, S, or O) that may be acid/base labile, releasing an aldehyde.

>  <s_lp_Force_Field>  (146) 
OPLS3e

>  <r_lp_Energy>  (146) 
190.924

>  <b_lp_Chiralities_Consistent>  (146) 
1

>  <s_lp_Variant>  (146) 
43:0-1

>  <s_i_glide_gridfile>  (146) 
pfpi4k_grid

>  <i_i_glide_lignum>  (146) 
23

>  <i_i_glide_rotatable_bonds>  (146) 
15

>  <r_i_docking_score>  (146) 
-2.91131

>  <r_i_glide_ligand_efficiency>  (146) 
-0.0594145

>  <r_i_glide_ligand_efficiency_sa>  (146) 
-0.217416

>  <r_i_glide_ligand_efficiency_ln>  (146) 
-0.595138

>  <r_i_glide_gscore>  (146) 
-2.91131

>  <r_i_glide_lipo>  (146) 
-0.144369

>  <r_i_glide_hbond>  (146) 
-0.280993

>  <r_i_glide_metal>  (146) 
-0

>  <r_i_glide_rewards>  (146) 
-0.0375467

>  <r_i_glide_evdw>  (146) 
-32.4638

>  <r_i_glide_ecoul>  (146) 
-5.58554

>  <r_i_glide_erotb>  (146) 
0.137704

>  <r_i_glide_esite>  (146) 
-0.125083

>  <r_i_glide_emodel>  (146) 
-35.3529

>  <r_i_glide_energy>  (146) 
-38.0493

>  <r_i_glide_einternal>  (146) 
18.0347

>  <r_i_glide_intrahb_reward>  (146) 
-0

>  <i_i_glide_confnum>  (146) 
2

>  <i_i_glide_posenum>  (146) 
7

>  <r_i_glide_eff_state_penalty>  (146) 
0

>  <ligand_id>  (146) 
43

>  <original_smiles>  (146) 
COCC12C(OC3OCCC(OC(C)=O)C3OC(C)=O)C=C3CC1C(OC)CC1C4CC(OC)C2(C)C3C(COC(C)=O)(C1OC)C4OC

>  <smiles>  (146) 
[H]C1=C2C([H])([H])C3([H])C([H])(OC([H])([H])[H])C([H])([H])C4([H])C([H])(OC([H])([H])[H])C5(C([H])([H])OC(=O)C([H])([H])[H])C([H])(OC([H])([H])[H])C4([H])C([H])([H])C([H])(OC([H])([H])[H])C(C([H])([H])[H])(C25[H])C3(C([H])([H])OC([H])([H])[H])C1([H])OC1([H])OC([H])([H])C([H])([H])C([H])(OC(=O)C([H])([H])[H])C1([H])OC(=O)C([H])([H])[H]

$$$$
43:0:1
     RDKit          3D

103108  0  0  1  0  0  0  0  0999 V2000
    1.5026    1.3367    1.4911 C   0  0  0  0  0  0  0  0  0  0  0  0
    0.7791    1.0531    2.6756 O   0  0  0  0  0  0  0  0  0  0  0  0
    1.4302    1.5176    3.8303 C   0  0  0  0  0  0  0  0  0  0  0  0
    0.6660    1.1380    5.1235 C   0  0  2  0  0  0  0  0  0  0  0  0
    0.2611   -0.4000    4.9831 C   0  0  1  0  0  0  0  0  0  0  0  0
    1.3123   -1.2965    4.6593 O   0  0  0  0  0  0  0  0  0  0  0  0
    0.9739   -2.6462    4.4753 C   0  0  2  0  0  0  0  0  0  0  0  0
    0.6412   -3.1955    5.7456 O   0  0  0  0  0  0  0  0  0  0  0  0
    0.2617   -4.5633    5.7137 C   0  0  0  0  0  0  0  0  0  0  0  0
    1.4407   -5.4108    5.2614 C   0  0  0  0  0  0  0  0  0  0  0  0
    1.9480   -4.8873    3.9144 C   0  0  1  0  0  0  0  0  0  0  0  0
    1.0260   -5.2007    2.8868 O   0  0  0  0  0  0  0  0  0  0  0  0
    1.0317   -6.3385    2.1653 C   0  0  0  0  0  0  0  0  0  0  0  0
    2.1261   -7.3518    2.5172 C   0  0  0  0  0  0  0  0  0  0  0  0
    0.2189   -6.5685    1.2643 O   0  0  0  0  0  0  0  0  0  0  0  0
    2.2158   -3.3723    3.9904 C   0  0  1  0  0  0  0  0  0  0  0  0
    2.6388   -2.8821    2.7290 O   0  0  0  0  0  0  0  0  0  0  0  0
    3.9188   -2.9474    2.2715 C   0  0  0  0  0  0  0  0  0  0  0  0
    4.9429   -3.5770    3.2189 C   0  0  0  0  0  0  0  0  0  0  0  0
    4.2711   -2.5362    1.1671 O   0  0  0  0  0  0  0  0  0  0  0  0
   -0.5101   -0.8162    6.2443 C   0  0  0  0  0  0  0  0  0  0  0  0
   -0.8252    0.2270    7.0333 C   0  0  0  0  0  0  0  0  0  0  0  0
   -1.6990    1.1696    6.2247 C   0  0  0  0  0  0  0  0  0  0  0  0
   -0.7521    1.8924    5.2323 C   0  0  1  0  0  0  0  0  0  0  0  0
   -0.7277    3.4417    5.4752 C   0  0  1  0  0  0  0  0  0  0  0  0
   -1.6354    4.0299    4.5417 O   0  0  0  0  0  0  0  0  0  0  0  0
   -1.1080    4.1769    3.2328 C   0  0  0  0  0  0  0  0  0  0  0  0
   -1.2087    4.0568    6.8395 C   0  0  0  0  0  0  0  0  0  0  0  0
   -0.6218    3.7819    8.2704 C   0  0  2  0  0  0  0  0  0  0  0  0
    0.9025    3.8458    8.5489 C   0  0  2  0  0  0  0  0  0  0  0  0
    1.7879    3.9993    7.3172 C   0  0  0  0  0  0  0  0  0  0  0  0
    2.2683    2.7483    6.5455 C   0  0  1  0  0  0  0  0  0  0  0  0
    3.6420    2.5745    6.9343 O   0  0  0  0  0  0  0  0  0  0  0  0
    4.5931    3.3310    6.2002 C   0  0  0  0  0  0  0  0  0  0  0  0
    1.4761    1.3537    6.4962 C   0  0  2  0  0  0  0  0  0  0  0  0
    2.6212    0.2696    6.5901 C   0  0  0  0  0  0  0  0  0  0  0  0
    0.4000    0.9522    7.6490 C   0  0  1  0  0  0  0  0  0  0  0  0
    0.1476    1.6200    9.0628 C   0  0  2  0  0  0  0  0  0  0  0  0
   -0.0284    0.5184   10.1765 C   0  0  0  0  0  0  0  0  0  0  0  0
    1.0608   -0.3784   10.3181 O   0  0  0  0  0  0  0  0  0  0  0  0
    1.0302   -1.5898    9.7756 C   0  0  0  0  0  0  0  0  0  0  0  0
    2.3387   -2.3773    9.9594 C   0  0  0  0  0  0  0  0  0  0  0  0
    0.0981   -2.0958    9.1386 O   0  0  0  0  0  0  0  0  0  0  0  0
   -1.0894    2.5396    9.0518 C   0  0  1  0  0  0  0  0  0  0  0  0
   -1.4233    2.9463   10.3872 O   0  0  0  0  0  0  0  0  0  0  0  0
   -2.7579    3.4128   10.5611 C   0  0  0  0  0  0  0  0  0  0  0  0
    1.2243    2.6349    9.4482 C   0  0  1  0  0  0  0  0  0  0  0  0
    2.5452    2.1070    9.3921 O   0  0  0  0  0  0  0  0  0  0  0  0
    3.5358    2.9094   10.0160 C   0  0  0  0  0  0  0  0  0  0  0  0
    0.9725    0.9274    0.6302 H   0  0  0  0  0  0  0  0  0  0  0  0
    2.4974    0.8839    1.5094 H   0  0  0  0  0  0  0  0  0  0  0  0
    1.6197    2.4136    1.3429 H   0  0  0  0  0  0  0  0  0  0  0  0
    2.4473    1.1020    3.8606 H   0  0  0  0  0  0  0  0  0  0  0  0
    1.5362    2.5995    3.7103 H   0  0  0  0  0  0  0  0  0  0  0  0
   -0.4439   -0.4969    4.1662 H   0  0  0  0  0  0  0  0  0  0  0  0
    0.1200   -2.7351    3.7923 H   0  0  0  0  0  0  0  0  0  0  0  0
   -0.0526   -4.8626    6.7132 H   0  0  0  0  0  0  0  0  0  0  0  0
   -0.5827   -4.6974    5.0414 H   0  0  0  0  0  0  0  0  0  0  0  0
    2.2481   -5.3439    5.9893 H   0  0  0  0  0  0  0  0  0  0  0  0
    1.1481   -6.4614    5.2109 H   0  0  0  0  0  0  0  0  0  0  0  0
    2.9029   -5.3696    3.7272 H   0  0  0  0  0  0  0  0  0  0  0  0
    2.0636   -7.6594    3.5595 H   0  0  0  0  0  0  0  0  0  0  0  0
    3.1179   -6.9488    2.3326 H   0  0  0  0  0  0  0  0  0  0  0  0
    2.0336   -8.2817    1.9172 H   0  0  0  0  0  0  0  0  0  0  0  0
    2.9784   -3.1681    4.7573 H   0  0  0  0  0  0  0  0  0  0  0  0
    4.9861   -3.0512    4.1672 H   0  0  0  0  0  0  0  0  0  0  0  0
    5.9605   -3.5568    2.7722 H   0  0  0  0  0  0  0  0  0  0  0  0
    4.7420   -4.6304    3.4023 H   0  0  0  0  0  0  0  0  0  0  0  0
   -1.3457   -1.3943    5.8818 H   0  0  0  0  0  0  0  0  0  0  0  0
   -2.3972    0.5614    5.6583 H   0  0  0  0  0  0  0  0  0  0  0  0
   -2.3573    1.8065    6.7720 H   0  0  0  0  0  0  0  0  0  0  0  0
   -1.2341    1.7246    4.2700 H   0  0  0  0  0  0  0  0  0  0  0  0
    0.2469    3.8356    5.2025 H   0  0  0  0  0  0  0  0  0  0  0  0
   -1.8778    4.5350    2.5526 H   0  0  0  0  0  0  0  0  0  0  0  0
   -0.7362    3.2379    2.8182 H   0  0  0  0  0  0  0  0  0  0  0  0
   -0.2870    4.8914    3.2316 H   0  0  0  0  0  0  0  0  0  0  0  0
   -1.0682    5.1257    6.6940 H   0  0  0  0  0  0  0  0  0  0  0  0
   -2.2936    3.9506    6.9135 H   0  0  0  0  0  0  0  0  0  0  0  0
   -1.0312    4.6257    8.8300 H   0  0  0  0  0  0  0  0  0  0  0  0
    1.0705    4.7428    9.1464 H   0  0  0  0  0  0  0  0  0  0  0  0
    1.3692    4.7501    6.6555 H   0  0  0  0  0  0  0  0  0  0  0  0
    2.6728    4.5225    7.6723 H   0  0  0  0  0  0  0  0  0  0  0  0
    2.3576    3.1014    5.5323 H   0  0  0  0  0  0  0  0  0  0  0  0
    5.5878    3.1502    6.6052 H   0  0  0  0  0  0  0  0  0  0  0  0
    4.3913    4.4011    6.2665 H   0  0  0  0  0  0  0  0  0  0  0  0
    4.5966    3.0426    5.1452 H   0  0  0  0  0  0  0  0  0  0  0  0
    3.2138    0.3795    7.5031 H   0  0  0  0  0  0  0  0  0  0  0  0
    3.3103    0.3116    5.7484 H   0  0  0  0  0  0  0  0  0  0  0  0
    2.2770   -0.7501    6.6690 H   0  0  0  0  0  0  0  0  0  0  0  0
    0.9050    0.0502    8.0594 H   0  0  0  0  0  0  0  0  0  0  0  0
   -0.1606    1.0099   11.1386 H   0  0  0  0  0  0  0  0  0  0  0  0
   -0.9798   -0.0150   10.0137 H   0  0  0  0  0  0  0  0  0  0  0  0
    2.4623   -2.7052   10.9957 H   0  0  0  0  0  0  0  0  0  0  0  0
    3.2075   -1.7602    9.6806 H   0  0  0  0  0  0  0  0  0  0  0  0
    2.3534   -3.2705    9.3218 H   0  0  0  0  0  0  0  0  0  0  0  0
   -1.9813    2.0420    8.6992 H   0  0  0  0  0  0  0  0  0  0  0  0
   -2.9065    3.7580   11.5848 H   0  0  0  0  0  0  0  0  0  0  0  0
   -3.4853    2.6185   10.3790 H   0  0  0  0  0  0  0  0  0  0  0  0
   -2.9979    4.2478    9.8991 H   0  0  0  0  0  0  0  0  0  0  0  0
    1.0436    2.9214   10.4844 H   0  0  0  0  0  0  0  0  0  0  0  0
    4.5044    2.4317    9.8801 H   0  0  0  0  0  0  0  0  0  0  0  0
    3.3525    3.0184   11.0868 H   0  0  0  0  0  0  0  0  0  0  0  0
    3.6003    3.9049    9.5785 H   0  0  0  0  0  0  0  0  0  0  0  0
  1  2  1  0
  1 50  1  0
  1 51  1  0
  1 52  1  0
  2  3  1  0
  4  3  1  6
  3 53  1  0
  3 54  1  0
  4 24  1  0
  4 35  1  0
  4  5  1  0
  5  6  1  0
  5 21  1  0
  5 55  1  6
  6  7  1  0
  7 16  1  0
  7  8  1  0
  7 56  1  6
  8  9  1  0
  9 10  1  0
  9 57  1  0
  9 58  1  0
 10 11  1  0
 10 59  1  0
 10 60  1  0
 11 12  1  0
 11 16  1  0
 11 61  1  6
 12 13  1  0
 13 14  1  0
 13 15  2  0
 14 62  1  0
 14 63  1  0
 14 64  1  0
 16 17  1  0
 16 65  1  1
 17 18  1  0
 18 19  1  0
 18 20  2  0
 19 66  1  0
 19 67  1  0
 19 68  1  0
 21 22  2  0
 21 69  1  0
 22 37  1  0
 22 23  1  0
 23 24  1  0
 23 70  1  0
 23 71  1  0
 24 25  1  0
 24 72  1  6
 25 26  1  0
 25 28  1  0
 25 73  1  6
 26 27  1  0
 27 74  1  0
 27 75  1  0
 27 76  1  0
 28 29  1  0
 28 77  1  0
 28 78  1  0
 29 44  1  0
 29 30  1  0
 29 79  1  1
 30 47  1  0
 30 31  1  0
 30 80  1  1
 31 32  1  0
 31 81  1  0
 31 82  1  0
 32 33  1  0
 32 35  1  0
 32 83  1  6
 33 34  1  0
 34 84  1  0
 34 85  1  0
 34 86  1  0
 35 36  1  6
 35 37  1  0
 36 87  1  0
 36 88  1  0
 36 89  1  0
 37 38  1  0
 37 90  1  1
 38 39  1  1
 38 44  1  0
 38 47  1  0
 39 40  1  0
 39 91  1  0
 39 92  1  0
 40 41  1  0
 41 42  1  0
 41 43  2  0
 42 93  1  0
 42 94  1  0
 42 95  1  0
 44 45  1  0
 44 96  1  6
 45 46  1  0
 46 97  1  0
 46 98  1  0
 46 99  1  0
 47 48  1  0
 47100  1  1
 48 49  1  0
 49101  1  0
 49102  1  0
 49103  1  0
M  END
>  <i_m_ct_stereo_status>  (147) 
1

>  <s_m_source_file>  (147) 
/var/tmp/pbs.5076255.sched01/tmp5eg4wc32/41mqp692j8.sdf

>  <i_m_source_file_index>  (147) 
23

>  <i_lp_mmshare_version>  (147) 
48012

>  <i_f3d_flags>  (147) 
0

>  <s_epik_input>  (147) 
W0NIM11DKD1PKU9bQ0gyXVtDQF0xKFtDQEhdMk9bQ0gzXSlbQ0BASF0oT1tDSDNdKVtDQEhdKFtDSDJdW0NAQEhdM09bQ0gzXSlbQ0BASF0yW0NIMl1bQ0BASF0oT1tDSDNdKVtDQEBdNChbQ0gzXSlbQ0BASF0xQyhbQ0gyXVtDQEBIXTNbQ0BAXTQ1W0NIMl1PW0NIM10pPVtDSF1bQ0BASF01T1tDQEBIXTZPW0NIMl1bQ0gyXVtDQEBIXShPQyg9TylbQ0gzXSlbQ0BIXTZPQyg9TylbQ0gzXQ==

>  <s_epik_cmdline>  (147) 
J2VwaWtfcHl0aG9uJywgJy1waHQnLCAnMi4wJywgJy1waCcsICc3LjAnLCAnLXRuJywgJzgnLCAnLW1hJywgJzIwMCcsICctaW1hZScsICc8aW5maWxlLm1hZT4nLCAnLW9tYWUnLCAnPG91dGZpbGUubWFlPic=

>  <r_lp_tautomer_probability>  (147) 
1

>  <r_epik_Ionization_Penalty>  (147) 
4.72295e-11

>  <r_epik_Ionization_Penalty_Charging>  (147) 
0

>  <r_epik_Ionization_Penalty_Neutral>  (147) 
4.72295e-11

>  <r_epik_State_Penalty>  (147) 
-0

>  <r_epik_Charging_Adjusted_Penalty>  (147) 
0

>  <i_epik_Tot_Q>  (147) 
0

>  <i_epik_Tot_abs_Q>  (147) 
0

>  <s_epik_Chemistry_Notes>  (147) 
This compound has an ester and may undergo hydrolysis at high or low pH. This compound contains an acetal/aminal-like group ( X-CH(R)-Y where X, Y are N, S, or O) that may be acid/base labile, releasing an aldehyde.

>  <s_lp_Force_Field>  (147) 
OPLS3e

>  <r_lp_Energy>  (147) 
190.924

>  <b_lp_Chiralities_Consistent>  (147) 
1

>  <s_lp_Variant>  (147) 
43:0-1

>  <s_i_glide_gridfile>  (147) 
pfpi4k_grid

>  <i_i_glide_lignum>  (147) 
23

>  <i_i_glide_rotatable_bonds>  (147) 
15

>  <r_i_docking_score>  (147) 
-2.43829

>  <r_i_glide_ligand_efficiency>  (147) 
-0.049761

>  <r_i_glide_ligand_efficiency_sa>  (147) 
-0.182091

>  <r_i_glide_ligand_efficiency_ln>  (147) 
-0.498442

>  <r_i_glide_gscore>  (147) 
-2.43829

>  <r_i_glide_lipo>  (147) 
-0.0414854

>  <r_i_glide_hbond>  (147) 
-0.32

>  <r_i_glide_metal>  (147) 
-0

>  <r_i_glide_rewards>  (147) 
-0.0210505

>  <r_i_glide_evdw>  (147) 
-26.2574

>  <r_i_glide_ecoul>  (147) 
-5.39104

>  <r_i_glide_erotb>  (147) 
0.137704

>  <r_i_glide_esite>  (147) 
-0.0719319

>  <r_i_glide_emodel>  (147) 
-30.2117

>  <r_i_glide_energy>  (147) 
-31.6484

>  <r_i_glide_einternal>  (147) 
13.033

>  <r_i_glide_intrahb_reward>  (147) 
-0

>  <i_i_glide_confnum>  (147) 
8

>  <i_i_glide_posenum>  (147) 
21

>  <r_i_glide_eff_state_penalty>  (147) 
0

>  <ligand_id>  (147) 
43

>  <original_smiles>  (147) 
COCC12C(OC3OCCC(OC(C)=O)C3OC(C)=O)C=C3CC1C(OC)CC1C4CC(OC)C2(C)C3C(COC(C)=O)(C1OC)C4OC

>  <smiles>  (147) 
[H]C1=C2C([H])([H])C3([H])C([H])(OC([H])([H])[H])C([H])([H])C4([H])C([H])(OC([H])([H])[H])C5(C([H])([H])OC(=O)C([H])([H])[H])C([H])(OC([H])([H])[H])C4([H])C([H])([H])C([H])(OC([H])([H])[H])C(C([H])([H])[H])(C25[H])C3(C([H])([H])OC([H])([H])[H])C1([H])OC1([H])OC([H])([H])C([H])([H])C([H])(OC(=O)C([H])([H])[H])C1([H])OC(=O)C([H])([H])[H]

$$$$
43:0:2
     RDKit          3D

103108  0  0  1  0  0  0  0  0999 V2000
    4.7901    0.0009    1.2165 C   0  0  0  0  0  0  0  0  0  0  0  0
    4.5925   -0.0907    2.6055 O   0  0  0  0  0  0  0  0  0  0  0  0
    3.2772    0.2042    3.0602 C   0  0  0  0  0  0  0  0  0  0  0  0
    2.7849   -0.6089    4.3036 C   0  0  2  0  0  0  0  0  0  0  0  0
    1.5587    0.2317    4.8846 C   0  0  1  0  0  0  0  0  0  0  0  0
    0.6082    0.6369    3.8944 O   0  0  0  0  0  0  0  0  0  0  0  0
   -0.2203    1.7333    4.2052 C   0  0  2  0  0  0  0  0  0  0  0  0
   -1.4481    1.5561    3.5434 O   0  0  0  0  0  0  0  0  0  0  0  0
   -2.4043    2.5847    3.7878 C   0  0  0  0  0  0  0  0  0  0  0  0
   -1.8840    3.9221    3.2623 C   0  0  0  0  0  0  0  0  0  0  0  0
   -0.5233    4.2190    3.8887 C   0  0  1  0  0  0  0  0  0  0  0  0
   -0.6920    4.4379    5.2927 O   0  0  0  0  0  0  0  0  0  0  0  0
   -0.1821    5.5296    5.8961 C   0  0  0  0  0  0  0  0  0  0  0  0
   -0.3323    5.5021    7.4035 C   0  0  0  0  0  0  0  0  0  0  0  0
    0.3249    6.4984    5.3176 O   0  0  0  0  0  0  0  0  0  0  0  0
    0.4314    3.0297    3.6823 C   0  0  1  0  0  0  0  0  0  0  0  0
    1.6222    3.2964    4.4098 O   0  0  0  0  0  0  0  0  0  0  0  0
    2.6158    4.0468    3.9200 C   0  0  0  0  0  0  0  0  0  0  0  0
    3.7962    4.0883    4.8652 C   0  0  0  0  0  0  0  0  0  0  0  0
    2.6242    4.6366    2.8376 O   0  0  0  0  0  0  0  0  0  0  0  0
    0.9570   -0.4738    6.0978 C   0  0  0  0  0  0  0  0  0  0  0  0
    1.7509   -1.4734    6.5180 C   0  0  0  0  0  0  0  0  0  0  0  0
    3.1199   -0.8929    6.8515 C   0  0  0  0  0  0  0  0  0  0  0  0
    3.8238   -0.5898    5.5068 C   0  0  1  0  0  0  0  0  0  0  0  0
    5.1749   -1.3527    5.3197 C   0  0  1  0  0  0  0  0  0  0  0  0
    6.2204   -0.4418    5.7018 O   0  0  0  0  0  0  0  0  0  0  0  0
    6.5762    0.5424    4.7396 C   0  0  0  0  0  0  0  0  0  0  0  0
    5.4891   -2.6444    6.1548 C   0  0  0  0  0  0  0  0  0  0  0  0
    4.6285   -3.9674    6.2054 C   0  0  2  0  0  0  0  0  0  0  0  0
    4.1388   -4.6805    4.9118 C   0  0  2  0  0  0  0  0  0  0  0  0
    4.3644   -3.9431    3.6025 C   0  0  0  0  0  0  0  0  0  0  0  0
    3.2946   -2.9603    3.0945 C   0  0  1  0  0  0  0  0  0  0  0  0
    2.6297   -3.6465    2.0118 O   0  0  0  0  0  0  0  0  0  0  0  0
    3.2151   -3.5381    0.7237 C   0  0  0  0  0  0  0  0  0  0  0  0
    2.3021   -2.1243    4.0569 C   0  0  2  0  0  0  0  0  0  0  0  0
    0.9800   -2.0951    3.2228 C   0  0  0  0  0  0  0  0  0  0  0  0
    1.8608   -2.6496    5.5230 C   0  0  1  0  0  0  0  0  0  0  0  0
    2.2101   -4.0389    6.1891 C   0  0  2  0  0  0  0  0  0  0  0  0
    0.9497   -4.5657    6.8975 C   0  0  0  0  0  0  0  0  0  0  0  0
    0.4905   -3.7630    7.9580 O   0  0  0  0  0  0  0  0  0  0  0  0
   -0.7006   -3.9999    8.5647 C   0  0  0  0  0  0  0  0  0  0  0  0
   -1.6260   -5.0079    7.8649 C   0  0  0  0  0  0  0  0  0  0  0  0
   -1.0435   -3.4491    9.5901 O   0  0  0  0  0  0  0  0  0  0  0  0
    3.4214   -4.0349    7.1584 C   0  0  1  0  0  0  0  0  0  0  0  0
    3.5138   -5.2844    7.8693 O   0  0  0  0  0  0  0  0  0  0  0  0
    3.1232   -5.2771    9.2360 C   0  0  0  0  0  0  0  0  0  0  0  0
    2.6825   -5.0866    5.1783 C   0  0  1  0  0  0  0  0  0  0  0  0
    1.8546   -5.2676    4.0223 O   0  0  0  0  0  0  0  0  0  0  0  0
    0.8652   -6.2850    4.0930 C   0  0  0  0  0  0  0  0  0  0  0  0
    5.8172   -0.2327    0.9660 H   0  0  0  0  0  0  0  0  0  0  0  0
    4.5594    0.9802    0.8237 H   0  0  0  0  0  0  0  0  0  0  0  0
    4.1445   -0.7278    0.7122 H   0  0  0  0  0  0  0  0  0  0  0  0
    3.2895    1.2647    3.3008 H   0  0  0  0  0  0  0  0  0  0  0  0
    2.5581    0.1171    2.2441 H   0  0  0  0  0  0  0  0  0  0  0  0
    2.0077    1.1261    5.3096 H   0  0  0  0  0  0  0  0  0  0  0  0
   -0.4421    1.7657    5.2764 H   0  0  0  0  0  0  0  0  0  0  0  0
   -3.3255    2.3517    3.2498 H   0  0  0  0  0  0  0  0  0  0  0  0
   -2.6641    2.6423    4.8434 H   0  0  0  0  0  0  0  0  0  0  0  0
   -1.7875    3.8746    2.1799 H   0  0  0  0  0  0  0  0  0  0  0  0
   -2.5907    4.7245    3.4691 H   0  0  0  0  0  0  0  0  0  0  0  0
   -0.1131    5.0901    3.3753 H   0  0  0  0  0  0  0  0  0  0  0  0
    0.1897    4.6383    7.8200 H   0  0  0  0  0  0  0  0  0  0  0  0
   -1.3830    5.4373    7.6898 H   0  0  0  0  0  0  0  0  0  0  0  0
    0.0861    6.4028    7.8513 H   0  0  0  0  0  0  0  0  0  0  0  0
    0.6378    2.8860    2.6119 H   0  0  0  0  0  0  0  0  0  0  0  0
    3.4768    4.4018    5.8580 H   0  0  0  0  0  0  0  0  0  0  0  0
    4.5504    4.7851    4.4997 H   0  0  0  0  0  0  0  0  0  0  0  0
    4.2363    3.0950    4.9433 H   0  0  0  0  0  0  0  0  0  0  0  0
    0.8179    0.3183    6.8196 H   0  0  0  0  0  0  0  0  0  0  0  0
    2.9679    0.0489    7.3801 H   0  0  0  0  0  0  0  0  0  0  0  0
    3.7503   -1.3993    7.5509 H   0  0  0  0  0  0  0  0  0  0  0  0
    4.0806    0.4575    5.6216 H   0  0  0  0  0  0  0  0  0  0  0  0
    5.3641   -1.5746    4.2747 H   0  0  0  0  0  0  0  0  0  0  0  0
    7.3686    1.1821    5.1333 H   0  0  0  0  0  0  0  0  0  0  0  0
    5.7408    1.1939    4.4835 H   0  0  0  0  0  0  0  0  0  0  0  0
    6.9487    0.1053    3.8122 H   0  0  0  0  0  0  0  0  0  0  0  0
    6.4684   -2.9658    5.8030 H   0  0  0  0  0  0  0  0  0  0  0  0
    5.6764   -2.3593    7.1912 H   0  0  0  0  0  0  0  0  0  0  0  0
    5.3382   -4.6683    6.6535 H   0  0  0  0  0  0  0  0  0  0  0  0
    4.7157   -5.6013    4.8213 H   0  0  0  0  0  0  0  0  0  0  0  0
    5.3648   -3.5196    3.5934 H   0  0  0  0  0  0  0  0  0  0  0  0
    4.4517   -4.7273    2.8495 H   0  0  0  0  0  0  0  0  0  0  0  0
    3.8894   -2.2338    2.5727 H   0  0  0  0  0  0  0  0  0  0  0  0
    2.6994   -4.2000    0.0334 H   0  0  0  0  0  0  0  0  0  0  0  0
    4.2619   -3.8235    0.7381 H   0  0  0  0  0  0  0  0  0  0  0  0
    3.1464   -2.5098    0.3316 H   0  0  0  0  0  0  0  0  0  0  0  0
    0.6254   -3.1044    3.0027 H   0  0  0  0  0  0  0  0  0  0  0  0
    1.1014   -1.5646    2.2792 H   0  0  0  0  0  0  0  0  0  0  0  0
    0.1323   -1.6475    3.7334 H   0  0  0  0  0  0  0  0  0  0  0  0
    0.7963   -2.8128    5.3778 H   0  0  0  0  0  0  0  0  0  0  0  0
    0.1709   -4.5815    6.1440 H   0  0  0  0  0  0  0  0  0  0  0  0
    1.1129   -5.5876    7.2479 H   0  0  0  0  0  0  0  0  0  0  0  0
   -1.2069   -6.0096    7.8820 H   0  0  0  0  0  0  0  0  0  0  0  0
   -1.8297   -4.7243    6.8376 H   0  0  0  0  0  0  0  0  0  0  0  0
   -2.6057   -5.0493    8.3675 H   0  0  0  0  0  0  0  0  0  0  0  0
    3.4069   -3.2697    7.9216 H   0  0  0  0  0  0  0  0  0  0  0  0
    3.3234   -6.2508    9.6845 H   0  0  0  0  0  0  0  0  0  0  0  0
    2.0566   -5.0896    9.3731 H   0  0  0  0  0  0  0  0  0  0  0  0
    3.6752   -4.5267    9.8009 H   0  0  0  0  0  0  0  0  0  0  0  0
    2.7522   -6.0561    5.6769 H   0  0  0  0  0  0  0  0  0  0  0  0
    0.3127   -6.3222    3.1530 H   0  0  0  0  0  0  0  0  0  0  0  0
    0.1208   -6.1202    4.8729 H   0  0  0  0  0  0  0  0  0  0  0  0
    1.3164   -7.2623    4.2634 H   0  0  0  0  0  0  0  0  0  0  0  0
  1  2  1  0
  1 50  1  0
  1 51  1  0
  1 52  1  0
  2  3  1  0
  4  3  1  6
  3 53  1  0
  3 54  1  0
  4 24  1  0
  4 35  1  0
  4  5  1  0
  5  6  1  0
  5 21  1  0
  5 55  1  1
  6  7  1  0
  7 16  1  0
  7  8  1  0
  7 56  1  1
  8  9  1  0
  9 10  1  0
  9 57  1  0
  9 58  1  0
 10 11  1  0
 10 59  1  0
 10 60  1  0
 11 12  1  0
 11 16  1  0
 11 61  1  6
 12 13  1  0
 13 14  1  0
 13 15  2  0
 14 62  1  0
 14 63  1  0
 14 64  1  0
 16 17  1  0
 16 65  1  6
 17 18  1  0
 18 19  1  0
 18 20  2  0
 19 66  1  0
 19 67  1  0
 19 68  1  0
 21 22  2  0
 21 69  1  0
 22 37  1  0
 22 23  1  0
 23 24  1  0
 23 70  1  0
 23 71  1  0
 24 25  1  0
 24 72  1  1
 25 26  1  0
 25 28  1  0
 25 73  1  6
 26 27  1  0
 27 74  1  0
 27 75  1  0
 27 76  1  0
 28 29  1  0
 28 77  1  0
 28 78  1  0
 29 44  1  0
 29 30  1  0
 29 79  1  1
 30 47  1  0
 30 31  1  0
 30 80  1  6
 31 32  1  0
 31 81  1  0
 31 82  1  0
 32 33  1  0
 32 35  1  0
 32 83  1  6
 33 34  1  0
 34 84  1  0
 34 85  1  0
 34 86  1  0
 35 36  1  6
 35 37  1  0
 36 87  1  0
 36 88  1  0
 36 89  1  0
 37 38  1  0
 37 90  1  6
 38 39  1  1
 38 44  1  0
 38 47  1  0
 39 40  1  0
 39 91  1  0
 39 92  1  0
 40 41  1  0
 41 42  1  0
 41 43  2  0
 42 93  1  0
 42 94  1  0
 42 95  1  0
 44 45  1  0
 44 96  1  1
 45 46  1  0
 46 97  1  0
 46 98  1  0
 46 99  1  0
 47 48  1  0
 47100  1  1
 48 49  1  0
 49101  1  0
 49102  1  0
 49103  1  0
M  END
>  <i_m_ct_stereo_status>  (148) 
1

>  <s_m_source_file>  (148) 
/var/tmp/pbs.5076255.sched01/tmp5eg4wc32/41mqp692j8.sdf

>  <i_m_source_file_index>  (148) 
23

>  <i_lp_mmshare_version>  (148) 
48012

>  <i_f3d_flags>  (148) 
0

>  <s_epik_input>  (148) 
W0NIM11DKD1PKU9bQ0gyXVtDQF0xKFtDQEhdMk9bQ0gzXSlbQ0BASF0oT1tDSDNdKVtDQEhdKFtDSDJdW0NAQEhdM09bQ0gzXSlbQ0BASF0yW0NIMl1bQ0BASF0oT1tDSDNdKVtDQEBdNChbQ0gzXSlbQ0BASF0xQyhbQ0gyXVtDQEBIXTNbQ0BAXTQ1W0NIMl1PW0NIM10pPVtDSF1bQ0BASF01T1tDQEBIXTZPW0NIMl1bQ0gyXVtDQEBIXShPQyg9TylbQ0gzXSlbQ0BIXTZPQyg9TylbQ0gzXQ==

>  <s_epik_cmdline>  (148) 
J2VwaWtfcHl0aG9uJywgJy1waHQnLCAnMi4wJywgJy1waCcsICc3LjAnLCAnLXRuJywgJzgnLCAnLW1hJywgJzIwMCcsICctaW1hZScsICc8aW5maWxlLm1hZT4nLCAnLW9tYWUnLCAnPG91dGZpbGUubWFlPic=

>  <r_lp_tautomer_probability>  (148) 
1

>  <r_epik_Ionization_Penalty>  (148) 
4.72295e-11

>  <r_epik_Ionization_Penalty_Charging>  (148) 
0

>  <r_epik_Ionization_Penalty_Neutral>  (148) 
4.72295e-11

>  <r_epik_State_Penalty>  (148) 
-0

>  <r_epik_Charging_Adjusted_Penalty>  (148) 
0

>  <i_epik_Tot_Q>  (148) 
0

>  <i_epik_Tot_abs_Q>  (148) 
0

>  <s_epik_Chemistry_Notes>  (148) 
This compound has an ester and may undergo hydrolysis at high or low pH. This compound contains an acetal/aminal-like group ( X-CH(R)-Y where X, Y are N, S, or O) that may be acid/base labile, releasing an aldehyde.

>  <s_lp_Force_Field>  (148) 
OPLS3e

>  <r_lp_Energy>  (148) 
190.924

>  <b_lp_Chiralities_Consistent>  (148) 
1

>  <s_lp_Variant>  (148) 
43:0-1

>  <s_i_glide_gridfile>  (148) 
pfpi4k_grid

>  <i_i_glide_lignum>  (148) 
23

>  <i_i_glide_rotatable_bonds>  (148) 
15

>  <r_i_docking_score>  (148) 
-2.03876

>  <r_i_glide_ligand_efficiency>  (148) 
-0.0416074

>  <r_i_glide_ligand_efficiency_sa>  (148) 
-0.152254

>  <r_i_glide_ligand_efficiency_ln>  (148) 
-0.41677

>  <r_i_glide_gscore>  (148) 
-2.03876

>  <r_i_glide_lipo>  (148) 
-0.382379

>  <r_i_glide_hbond>  (148) 
-0.160006

>  <r_i_glide_metal>  (148) 
-0

>  <r_i_glide_rewards>  (148) 
0

>  <r_i_glide_evdw>  (148) 
-30.4043

>  <r_i_glide_ecoul>  (148) 
-0.054187

>  <r_i_glide_erotb>  (148) 
0.137704

>  <r_i_glide_esite>  (148) 
-0.105741

>  <r_i_glide_emodel>  (148) 
-25.4562

>  <r_i_glide_energy>  (148) 
-30.4584

>  <r_i_glide_einternal>  (148) 
17.1655

>  <r_i_glide_intrahb_reward>  (148) 
-0

>  <i_i_glide_confnum>  (148) 
1

>  <i_i_glide_posenum>  (148) 
5

>  <r_i_glide_eff_state_penalty>  (148) 
0

>  <ligand_id>  (148) 
43

>  <original_smiles>  (148) 
COCC12C(OC3OCCC(OC(C)=O)C3OC(C)=O)C=C3CC1C(OC)CC1C4CC(OC)C2(C)C3C(COC(C)=O)(C1OC)C4OC

>  <smiles>  (148) 
[H]C1=C2C([H])([H])C3([H])C([H])(OC([H])([H])[H])C([H])([H])C4([H])C([H])(OC([H])([H])[H])C5(C([H])([H])OC(=O)C([H])([H])[H])C([H])(OC([H])([H])[H])C4([H])C([H])([H])C([H])(OC([H])([H])[H])C(C([H])([H])[H])(C25[H])C3(C([H])([H])OC([H])([H])[H])C1([H])OC1([H])OC([H])([H])C([H])([H])C([H])(OC(=O)C([H])([H])[H])C1([H])OC(=O)C([H])([H])[H]

$$$$
44:0:0
     RDKit          3D

 52 56  0  0  1  0  0  0  0  0999 V2000
   -0.0954   -1.9674    4.5668 C   0  0  0  0  0  0  0  0  0  0  0  0
    1.2241   -1.4033    4.0031 C   0  0  0  0  0  0  0  0  0  0  0  0
    2.1817   -2.5523    3.5977 C   0  0  0  0  0  0  0  0  0  0  0  0
    0.9189   -0.6326    2.8985 O   0  0  0  0  0  0  0  0  0  0  0  0
    1.9119    0.3710    2.8772 C   0  0  1  0  0  0  0  0  0  0  0  0
    1.5213    1.6181    2.0746 C   0  0  0  0  0  0  0  0  0  0  0  0
    0.7694    2.5470    2.8478 O   0  0  0  0  0  0  0  0  0  0  0  0
    1.4451    3.0174    3.9969 C   0  0  2  0  0  0  0  0  0  0  0  0
    1.4766    1.8137    4.9710 C   0  0  1  0  0  0  0  0  0  0  0  0
    0.0404    1.5238    5.4376 C   0  0  0  0  0  0  0  0  0  0  0  0
   -0.5278    2.6507    6.2062 N   0  0  0  0  0  0  0  0  0  0  0  0
   -1.2853    2.4042    7.2844 C   0  0  0  0  0  0  0  0  0  0  0  0
   -1.6692    1.2721    7.5826 O   0  0  0  0  0  0  0  0  0  0  0  0
   -1.6205    3.5661    8.2533 C   0  0  0  0  0  0  0  0  0  0  0  0
   -0.7379    3.4651    9.5285 C   0  0  0  0  0  0  0  0  0  0  0  0
   -1.7328    3.3641   10.6456 C   0  0  0  0  0  0  0  0  0  0  0  0
   -2.9905    3.3825   10.2148 C   0  0  0  0  0  0  0  0  0  0  0  0
   -3.0987    3.5202    8.7263 C   0  0  0  0  0  0  0  0  0  0  0  0
   -0.3256    3.9529    5.6506 C   0  0  1  0  0  0  0  0  0  0  0  0
    0.9675    4.6821    5.9814 C   0  0  0  0  0  0  0  0  0  0  0  0
    0.6894    4.2166    4.5600 C   0  0  1  0  0  0  0  0  0  0  0  0
    0.3951    5.2483    3.4684 C   0  0  0  0  0  0  0  0  0  0  0  0
    0.0846    6.5363    3.9935 O   0  0  0  0  0  0  0  0  0  0  0  0
    2.2183    0.6059    4.3515 C   0  0  1  0  0  0  0  0  0  0  0  0
    1.8429   -0.6275    4.9756 O   0  0  0  0  0  0  0  0  0  0  0  0
   -0.7856   -1.1589    4.7995 H   0  0  0  0  0  0  0  0  0  0  0  0
    0.0977   -2.5479    5.4678 H   0  0  0  0  0  0  0  0  0  0  0  0
   -0.5523   -2.6154    3.8244 H   0  0  0  0  0  0  0  0  0  0  0  0
    3.1436   -2.1542    3.2738 H   0  0  0  0  0  0  0  0  0  0  0  0
    1.7419   -3.1254    2.7802 H   0  0  0  0  0  0  0  0  0  0  0  0
    2.3478   -3.2151    4.4507 H   0  0  0  0  0  0  0  0  0  0  0  0
    2.7888   -0.0746    2.3975 H   0  0  0  0  0  0  0  0  0  0  0  0
    2.4147    2.1208    1.7067 H   0  0  0  0  0  0  0  0  0  0  0  0
    0.9406    1.3204    1.2002 H   0  0  0  0  0  0  0  0  0  0  0  0
    2.4586    3.3369    3.7333 H   0  0  0  0  0  0  0  0  0  0  0  0
    2.0493    2.0914    5.8629 H   0  0  0  0  0  0  0  0  0  0  0  0
   -0.6223    1.2886    4.5895 H   0  0  0  0  0  0  0  0  0  0  0  0
    0.0757    0.6183    6.0633 H   0  0  0  0  0  0  0  0  0  0  0  0
   -1.4573    4.5516    7.8409 H   0  0  0  0  0  0  0  0  0  0  0  0
   -0.0749    2.5961    9.5502 H   0  0  0  0  0  0  0  0  0  0  0  0
   -0.1188    4.3542    9.6527 H   0  0  0  0  0  0  0  0  0  0  0  0
   -1.4395    3.2700   11.6829 H   0  0  0  0  0  0  0  0  0  0  0  0
   -3.8600    3.3116   10.8522 H   0  0  0  0  0  0  0  0  0  0  0  0
   -3.6161    4.4477    8.4904 H   0  0  0  0  0  0  0  0  0  0  0  0
   -3.6830    2.6917    8.3199 H   0  0  0  0  0  0  0  0  0  0  0  0
   -1.2354    4.5699    5.5476 H   0  0  0  0  0  0  0  0  0  0  0  0
    0.8765    5.7384    6.2258 H   0  0  0  0  0  0  0  0  0  0  0  0
    1.7198    4.1531    6.5584 H   0  0  0  0  0  0  0  0  0  0  0  0
    1.2407    5.3553    2.7944 H   0  0  0  0  0  0  0  0  0  0  0  0
   -0.4626    4.9263    2.8798 H   0  0  0  0  0  0  0  0  0  0  0  0
    0.2048    7.1896    3.3108 H   0  0  0  0  0  0  0  0  0  0  0  0
    3.2897    0.7503    4.4906 H   0  0  0  0  0  0  0  0  0  0  0  0
  1  2  1  0
  1 26  1  0
  1 27  1  0
  1 28  1  0
  2 25  1  0
  2  3  1  0
  2  4  1  0
  3 29  1  0
  3 30  1  0
  3 31  1  0
  4  5  1  0
  5 24  1  0
  5  6  1  0
  5 32  1  6
  6  7  1  0
  6 33  1  0
  6 34  1  0
  7  8  1  0
  8 21  1  0
  8  9  1  0
  8 35  1  6
  9 10  1  0
  9 24  1  0
  9 36  1  1
 10 11  1  0
 10 37  1  0
 10 38  1  0
 11 12  1  0
 11 19  1  0
 12 13  2  0
 12 14  1  0
 14 18  1  0
 14 15  1  0
 14 39  1  0
 15 16  1  0
 15 40  1  0
 15 41  1  0
 16 17  2  0
 16 42  1  0
 17 18  1  0
 17 43  1  0
 18 44  1  0
 18 45  1  0
 19 21  1  0
 19 20  1  0
 19 46  1  6
 20 21  1  0
 20 47  1  0
 20 48  1  0
 21 22  1  6
 22 23  1  0
 22 49  1  0
 22 50  1  0
 23 51  1  0
 24 25  1  0
 24 52  1  6
M  END
>  <i_m_ct_stereo_status>  (149) 
1

>  <s_m_source_file>  (149) 
/var/tmp/pbs.5076255.sched01/tmp5eg4wc32/41mqp692j8.sdf

>  <i_m_source_file_index>  (149) 
24

>  <i_lp_mmshare_version>  (149) 
48012

>  <i_f3d_flags>  (149) 
0

>  <s_epik_input>  (149) 
W0NIM11DKE8xKShbQ0gzXSlPW0NAQEhdKFtDSDJdTzIpW0NASF0xW0NAQEhdKFtDQEBIXTJbQ0BAXTM0W0NIMl1bT0hdKVtDSDJdTihbQ0BIXTNbQ0gyXTQpQyg9TylbQ0hdNVtDSDJdW0NIXT1bQ0hdW0NIMl01

>  <s_epik_cmdline>  (149) 
J2VwaWtfcHl0aG9uJywgJy1waHQnLCAnMi4wJywgJy1waCcsICc3LjAnLCAnLXRuJywgJzgnLCAnLW1hJywgJzIwMCcsICctaW1hZScsICc8aW5maWxlLm1hZT4nLCAnLW9tYWUnLCAnPG91dGZpbGUubWFlPic=

>  <r_lp_tautomer_probability>  (149) 
1

>  <r_epik_Ionization_Penalty>  (149) 
1.01309e-07

>  <r_epik_Ionization_Penalty_Charging>  (149) 
0

>  <r_epik_Ionization_Penalty_Neutral>  (149) 
1.01309e-07

>  <r_epik_State_Penalty>  (149) 
-0

>  <r_epik_Charging_Adjusted_Penalty>  (149) 
0

>  <i_epik_Tot_Q>  (149) 
0

>  <i_epik_Tot_abs_Q>  (149) 
0

>  <s_lp_Force_Field>  (149) 
OPLS3e

>  <r_lp_Energy>  (149) 
16.1119

>  <b_lp_Chiralities_Consistent>  (149) 
1

>  <s_lp_Variant>  (149) 
44:0-1

>  <s_i_glide_gridfile>  (149) 
pfpi4k_grid

>  <i_i_glide_lignum>  (149) 
24

>  <i_i_glide_rotatable_bonds>  (149) 
4

>  <r_i_docking_score>  (149) 
-3.1457

>  <r_i_glide_ligand_efficiency>  (149) 
-0.125828

>  <r_i_glide_ligand_efficiency_sa>  (149) 
-0.367923

>  <r_i_glide_ligand_efficiency_ln>  (149) 
-0.745624

>  <r_i_glide_gscore>  (149) 
-3.1457

>  <r_i_glide_lipo>  (149) 
-0.0502723

>  <r_i_glide_hbond>  (149) 
-0.278764

>  <r_i_glide_metal>  (149) 
-0

>  <r_i_glide_rewards>  (149) 
-1.02667

>  <r_i_glide_evdw>  (149) 
-17.0242

>  <r_i_glide_ecoul>  (149) 
-8.39639

>  <r_i_glide_erotb>  (149) 
0.327629

>  <r_i_glide_esite>  (149) 
-0.00694586

>  <r_i_glide_emodel>  (149) 
-28.7766

>  <r_i_glide_energy>  (149) 
-25.4206

>  <r_i_glide_einternal>  (149) 
5.52854

>  <r_i_glide_intrahb_reward>  (149) 
-0

>  <i_i_glide_confnum>  (149) 
5

>  <i_i_glide_posenum>  (149) 
30

>  <r_i_glide_eff_state_penalty>  (149) 
0

>  <ligand_id>  (149) 
44

>  <original_smiles>  (149) 
CC1(C)OC2COC3C(CN(C(=O)C4CC=CC4)C4CC34CO)C2O1

>  <smiles>  (149) 
[H]OC([H])([H])C12C([H])([H])C1([H])N(C(=O)C1([H])C([H])([H])C([H])=C([H])C1([H])[H])C([H])([H])C1([H])C3([H])OC(C([H])([H])[H])(C([H])([H])[H])OC3([H])C([H])([H])OC12[H]

$$$$
44:0:1
     RDKit          3D

 52 56  0  0  1  0  0  0  0  0999 V2000
   -0.1435   -7.4514    1.4527 C   0  0  0  0  0  0  0  0  0  0  0  0
    0.5476   -7.9638    2.7336 C   0  0  0  0  0  0  0  0  0  0  0  0
   -0.4991   -8.5035    3.7419 C   0  0  0  0  0  0  0  0  0  0  0  0
    1.4255   -8.9702    2.3759 O   0  0  0  0  0  0  0  0  0  0  0  0
    2.4703   -8.8912    3.3210 C   0  0  1  0  0  0  0  0  0  0  0  0
    3.7774   -9.5576    2.8628 C   0  0  0  0  0  0  0  0  0  0  0  0
    4.5992   -8.6954    2.0811 O   0  0  0  0  0  0  0  0  0  0  0  0
    4.9559   -7.4893    2.7359 C   0  0  2  0  0  0  0  0  0  0  0  0
    3.6548   -6.6502    2.8500 C   0  0  1  0  0  0  0  0  0  0  0  0
    3.2381   -6.1919    1.4496 C   0  0  0  0  0  0  0  0  0  0  0  0
    4.2466   -5.2940    0.8422 N   0  0  0  0  0  0  0  0  0  0  0  0
    3.8455   -4.2471    0.1087 C   0  0  0  0  0  0  0  0  0  0  0  0
    2.6586   -3.9917   -0.0976 O   0  0  0  0  0  0  0  0  0  0  0  0
    4.9121   -3.3052   -0.5093 C   0  0  0  0  0  0  0  0  0  0  0  0
    4.5629   -1.8104   -0.2746 C   0  0  0  0  0  0  0  0  0  0  0  0
    4.4699   -1.2462   -1.6622 C   0  0  0  0  0  0  0  0  0  0  0  0
    4.7033   -2.1544   -2.6083 C   0  0  0  0  0  0  0  0  0  0  0  0
    5.0078   -3.5114   -2.0452 C   0  0  0  0  0  0  0  0  0  0  0  0
    5.6012   -5.7248    0.9445 C   0  0  1  0  0  0  0  0  0  0  0  0
    6.3812   -5.3436    2.1983 C   0  0  0  0  0  0  0  0  0  0  0  0
    6.0461   -6.7977    1.9148 C   0  0  1  0  0  0  0  0  0  0  0  0
    7.2023   -7.7408    1.5723 C   0  0  0  0  0  0  0  0  0  0  0  0
    8.2471   -7.0906    0.8440 O   0  0  0  0  0  0  0  0  0  0  0  0
    2.5520   -7.4020    3.6359 C   0  0  1  0  0  0  0  0  0  0  0  0
    1.2405   -6.9136    3.3290 O   0  0  0  0  0  0  0  0  0  0  0  0
    0.5988   -7.1287    0.7259 H   0  0  0  0  0  0  0  0  0  0  0  0
   -0.8077   -6.6260    1.6895 H   0  0  0  0  0  0  0  0  0  0  0  0
   -0.7398   -8.2513    1.0160 H   0  0  0  0  0  0  0  0  0  0  0  0
   -0.0217   -8.7923    4.6771 H   0  0  0  0  0  0  0  0  0  0  0  0
   -1.0020   -9.3766    3.3224 H   0  0  0  0  0  0  0  0  0  0  0  0
   -1.2446   -7.7340    3.9555 H   0  0  0  0  0  0  0  0  0  0  0  0
    2.1223   -9.4228    4.2145 H   0  0  0  0  0  0  0  0  0  0  0  0
    4.3570   -9.8768    3.7281 H   0  0  0  0  0  0  0  0  0  0  0  0
    3.5492  -10.4575    2.2857 H   0  0  0  0  0  0  0  0  0  0  0  0
    5.3519   -7.7107    3.7325 H   0  0  0  0  0  0  0  0  0  0  0  0
    3.8596   -5.7395    3.4228 H   0  0  0  0  0  0  0  0  0  0  0  0
    3.0724   -7.0521    0.7859 H   0  0  0  0  0  0  0  0  0  0  0  0
    2.2698   -5.6830    1.5348 H   0  0  0  0  0  0  0  0  0  0  0  0
    5.8985   -3.4361   -0.0794 H   0  0  0  0  0  0  0  0  0  0  0  0
    3.6194   -1.6446    0.2535 H   0  0  0  0  0  0  0  0  0  0  0  0
    5.3461   -1.3106    0.2922 H   0  0  0  0  0  0  0  0  0  0  0  0
    4.2150   -0.2125   -1.8390 H   0  0  0  0  0  0  0  0  0  0  0  0
    4.6709   -1.9692   -3.6705 H   0  0  0  0  0  0  0  0  0  0  0  0
    6.0035   -3.8366   -2.3429 H   0  0  0  0  0  0  0  0  0  0  0  0
    4.2935   -4.2418   -2.4334 H   0  0  0  0  0  0  0  0  0  0  0  0
    6.1741   -5.7282   -0.0007 H   0  0  0  0  0  0  0  0  0  0  0  0
    7.4152   -5.0319    2.0699 H   0  0  0  0  0  0  0  0  0  0  0  0
    5.8470   -4.8227    2.9852 H   0  0  0  0  0  0  0  0  0  0  0  0
    7.6174   -8.1711    2.4816 H   0  0  0  0  0  0  0  0  0  0  0  0
    6.8334   -8.5567    0.9564 H   0  0  0  0  0  0  0  0  0  0  0  0
    9.0970   -7.4782    1.0241 H   0  0  0  0  0  0  0  0  0  0  0  0
    2.7321   -7.2576    4.7028 H   0  0  0  0  0  0  0  0  0  0  0  0
  1  2  1  0
  1 26  1  0
  1 27  1  0
  1 28  1  0
  2 25  1  0
  2  3  1  0
  2  4  1  0
  3 29  1  0
  3 30  1  0
  3 31  1  0
  4  5  1  0
  5 24  1  0
  5  6  1  0
  5 32  1  1
  6  7  1  0
  6 33  1  0
  6 34  1  0
  7  8  1  0
  8 21  1  0
  8  9  1  0
  8 35  1  1
  9 10  1  0
  9 24  1  0
  9 36  1  1
 10 11  1  0
 10 37  1  0
 10 38  1  0
 11 12  1  0
 11 19  1  0
 12 13  2  0
 12 14  1  0
 14 18  1  0
 14 15  1  0
 14 39  1  0
 15 16  1  0
 15 40  1  0
 15 41  1  0
 16 17  2  0
 16 42  1  0
 17 18  1  0
 17 43  1  0
 18 44  1  0
 18 45  1  0
 19 21  1  0
 19 20  1  0
 19 46  1  6
 20 21  1  0
 20 47  1  0
 20 48  1  0
 21 22  1  6
 22 23  1  0
 22 49  1  0
 22 50  1  0
 23 51  1  0
 24 25  1  0
 24 52  1  1
M  END
>  <i_m_ct_stereo_status>  (150) 
1

>  <s_m_source_file>  (150) 
/var/tmp/pbs.5076255.sched01/tmp5eg4wc32/41mqp692j8.sdf

>  <i_m_source_file_index>  (150) 
24

>  <i_lp_mmshare_version>  (150) 
48012

>  <i_f3d_flags>  (150) 
0

>  <s_epik_input>  (150) 
W0NIM11DKE8xKShbQ0gzXSlPW0NAQEhdKFtDSDJdTzIpW0NASF0xW0NAQEhdKFtDQEBIXTJbQ0BAXTM0W0NIMl1bT0hdKVtDSDJdTihbQ0BIXTNbQ0gyXTQpQyg9TylbQ0hdNVtDSDJdW0NIXT1bQ0hdW0NIMl01

>  <s_epik_cmdline>  (150) 
J2VwaWtfcHl0aG9uJywgJy1waHQnLCAnMi4wJywgJy1waCcsICc3LjAnLCAnLXRuJywgJzgnLCAnLW1hJywgJzIwMCcsICctaW1hZScsICc8aW5maWxlLm1hZT4nLCAnLW9tYWUnLCAnPG91dGZpbGUubWFlPic=

>  <r_lp_tautomer_probability>  (150) 
1

>  <r_epik_Ionization_Penalty>  (150) 
1.01309e-07

>  <r_epik_Ionization_Penalty_Charging>  (150) 
0

>  <r_epik_Ionization_Penalty_Neutral>  (150) 
1.01309e-07

>  <r_epik_State_Penalty>  (150) 
-0

>  <r_epik_Charging_Adjusted_Penalty>  (150) 
0

>  <i_epik_Tot_Q>  (150) 
0

>  <i_epik_Tot_abs_Q>  (150) 
0

>  <s_lp_Force_Field>  (150) 
OPLS3e

>  <r_lp_Energy>  (150) 
16.1119

>  <b_lp_Chiralities_Consistent>  (150) 
1

>  <s_lp_Variant>  (150) 
44:0-1

>  <s_i_glide_gridfile>  (150) 
pfpi4k_grid

>  <i_i_glide_lignum>  (150) 
24

>  <i_i_glide_rotatable_bonds>  (150) 
4

>  <r_i_docking_score>  (150) 
-2.88255

>  <r_i_glide_ligand_efficiency>  (150) 
-0.115302

>  <r_i_glide_ligand_efficiency_sa>  (150) 
-0.337145

>  <r_i_glide_ligand_efficiency_ln>  (150) 
-0.683251

>  <r_i_glide_gscore>  (150) 
-2.88255

>  <r_i_glide_lipo>  (150) 
-0.531827

>  <r_i_glide_hbond>  (150) 
-0.16

>  <r_i_glide_metal>  (150) 
-0

>  <r_i_glide_rewards>  (150) 
-1.08172

>  <r_i_glide_evdw>  (150) 
-24.0275

>  <r_i_glide_ecoul>  (150) 
-2.22396

>  <r_i_glide_erotb>  (150) 
0.468041

>  <r_i_glide_esite>  (150) 
-0.0420774

>  <r_i_glide_emodel>  (150) 
-29.758

>  <r_i_glide_energy>  (150) 
-26.2515

>  <r_i_glide_einternal>  (150) 
3.96674

>  <r_i_glide_intrahb_reward>  (150) 
-0

>  <i_i_glide_confnum>  (150) 
5

>  <i_i_glide_posenum>  (150) 
31

>  <r_i_glide_eff_state_penalty>  (150) 
0

>  <ligand_id>  (150) 
44

>  <original_smiles>  (150) 
CC1(C)OC2COC3C(CN(C(=O)C4CC=CC4)C4CC34CO)C2O1

>  <smiles>  (150) 
[H]OC([H])([H])C12C([H])([H])C1([H])N(C(=O)C1([H])C([H])([H])C([H])=C([H])C1([H])[H])C([H])([H])C1([H])C3([H])OC(C([H])([H])[H])(C([H])([H])[H])OC3([H])C([H])([H])OC12[H]

$$$$
44:0:2
     RDKit          3D

 52 56  0  0  1  0  0  0  0  0999 V2000
    1.6036   -1.4329    2.1840 C   0  0  0  0  0  0  0  0  0  0  0  0
    2.0309   -0.9565    3.5756 C   0  0  0  0  0  0  0  0  0  0  0  0
    2.9987    0.2412    3.4874 C   0  0  0  0  0  0  0  0  0  0  0  0
    0.8857   -0.5962    4.2767 O   0  0  0  0  0  0  0  0  0  0  0  0
    1.1807   -0.8663    5.6264 C   0  0  1  0  0  0  0  0  0  0  0  0
   -0.0681   -1.0116    6.5122 C   0  0  0  0  0  0  0  0  0  0  0  0
   -0.6216   -2.3216    6.4956 O   0  0  0  0  0  0  0  0  0  0  0  0
    0.3057   -3.3275    6.8872 C   0  0  2  0  0  0  0  0  0  0  0  0
    1.3619   -3.4406    5.7651 C   0  0  1  0  0  0  0  0  0  0  0  0
    0.6954   -4.0255    4.5099 C   0  0  0  0  0  0  0  0  0  0  0  0
    0.2397   -5.4030    4.7580 N   0  0  0  0  0  0  0  0  0  0  0  0
    0.3300   -6.3261    3.7774 C   0  0  0  0  0  0  0  0  0  0  0  0
    0.6811   -6.0334    2.6341 O   0  0  0  0  0  0  0  0  0  0  0  0
   -0.0173   -7.7943    4.0848 C   0  0  0  0  0  0  0  0  0  0  0  0
    1.0948   -8.7519    3.5842 C   0  0  0  0  0  0  0  0  0  0  0  0
    0.3772   -9.6531    2.6231 C   0  0  0  0  0  0  0  0  0  0  0  0
   -0.9163   -9.3587    2.5030 C   0  0  0  0  0  0  0  0  0  0  0  0
   -1.3311   -8.2066    3.3691 C   0  0  0  0  0  0  0  0  0  0  0  0
   -0.5112   -5.6304    5.9681 C   0  0  1  0  0  0  0  0  0  0  0  0
    0.2570   -5.9481    7.2311 C   0  0  0  0  0  0  0  0  0  0  0  0
   -0.4669   -4.6263    7.1068 C   0  0  1  0  0  0  0  0  0  0  0  0
   -1.6968   -4.4472    7.9911 C   0  0  0  0  0  0  0  0  0  0  0  0
   -1.3826   -3.8594    9.2378 O   0  0  0  0  0  0  0  0  0  0  0  0
    2.0892   -2.0921    5.5461 C   0  0  1  0  0  0  0  0  0  0  0  0
    2.6663   -2.0007    4.2475 O   0  0  0  0  0  0  0  0  0  0  0  0
    0.8969   -2.2535    2.2695 H   0  0  0  0  0  0  0  0  0  0  0  0
    2.4696   -1.7714    1.6137 H   0  0  0  0  0  0  0  0  0  0  0  0
    1.1252   -0.6139    1.6455 H   0  0  0  0  0  0  0  0  0  0  0  0
    3.3617    0.5256    4.4750 H   0  0  0  0  0  0  0  0  0  0  0  0
    2.4891    1.0946    3.0361 H   0  0  0  0  0  0  0  0  0  0  0  0
    3.8577   -0.0244    2.8657 H   0  0  0  0  0  0  0  0  0  0  0  0
    1.7597   -0.0236    6.0012 H   0  0  0  0  0  0  0  0  0  0  0  0
    0.1818   -0.7681    7.5470 H   0  0  0  0  0  0  0  0  0  0  0  0
   -0.8276   -0.2978    6.1922 H   0  0  0  0  0  0  0  0  0  0  0  0
    0.7836   -3.0483    7.8285 H   0  0  0  0  0  0  0  0  0  0  0  0
    2.1337   -4.1513    6.0680 H   0  0  0  0  0  0  0  0  0  0  0  0
   -0.1451   -3.4065    4.1831 H   0  0  0  0  0  0  0  0  0  0  0  0
    1.4350   -4.0114    3.7051 H   0  0  0  0  0  0  0  0  0  0  0  0
   -0.1224   -7.9847    5.1500 H   0  0  0  0  0  0  0  0  0  0  0  0
    1.9223   -8.2560    3.0719 H   0  0  0  0  0  0  0  0  0  0  0  0
    1.5154   -9.3338    4.4046 H   0  0  0  0  0  0  0  0  0  0  0  0
    0.8881  -10.4365    2.0832 H   0  0  0  0  0  0  0  0  0  0  0  0
   -1.6110   -9.8728    1.8572 H   0  0  0  0  0  0  0  0  0  0  0  0
   -2.0893   -8.5304    4.0815 H   0  0  0  0  0  0  0  0  0  0  0  0
   -1.7652   -7.4202    2.7491 H   0  0  0  0  0  0  0  0  0  0  0  0
   -1.4682   -6.1321    5.8308 H   0  0  0  0  0  0  0  0  0  0  0  0
   -0.1795   -6.6975    7.8900 H   0  0  0  0  0  0  0  0  0  0  0  0
    1.3437   -5.9655    7.1767 H   0  0  0  0  0  0  0  0  0  0  0  0
   -2.4396   -3.8498    7.4668 H   0  0  0  0  0  0  0  0  0  0  0  0
   -2.1631   -5.4131    8.1741 H   0  0  0  0  0  0  0  0  0  0  0  0
   -0.7851   -4.4233    9.7063 H   0  0  0  0  0  0  0  0  0  0  0  0
    2.8856   -2.0084    6.2883 H   0  0  0  0  0  0  0  0  0  0  0  0
  1  2  1  0
  1 26  1  0
  1 27  1  0
  1 28  1  0
  2 25  1  0
  2  3  1  0
  2  4  1  0
  3 29  1  0
  3 30  1  0
  3 31  1  0
  4  5  1  0
  5 24  1  0
  5  6  1  0
  5 32  1  1
  6  7  1  0
  6 33  1  0
  6 34  1  0
  7  8  1  0
  8 21  1  0
  8  9  1  0
  8 35  1  1
  9 10  1  0
  9 24  1  0
  9 36  1  1
 10 11  1  0
 10 37  1  0
 10 38  1  0
 11 12  1  0
 11 19  1  0
 12 13  2  0
 12 14  1  0
 14 18  1  0
 14 15  1  0
 14 39  1  0
 15 16  1  0
 15 40  1  0
 15 41  1  0
 16 17  2  0
 16 42  1  0
 17 18  1  0
 17 43  1  0
 18 44  1  0
 18 45  1  0
 19 21  1  0
 19 20  1  0
 19 46  1  6
 20 21  1  0
 20 47  1  0
 20 48  1  0
 21 22  1  1
 22 23  1  0
 22 49  1  0
 22 50  1  0
 23 51  1  0
 24 25  1  0
 24 52  1  1
M  END
>  <i_m_ct_stereo_status>  (151) 
1

>  <s_m_source_file>  (151) 
/var/tmp/pbs.5076255.sched01/tmp5eg4wc32/41mqp692j8.sdf

>  <i_m_source_file_index>  (151) 
24

>  <i_lp_mmshare_version>  (151) 
48012

>  <i_f3d_flags>  (151) 
0

>  <s_epik_input>  (151) 
W0NIM11DKE8xKShbQ0gzXSlPW0NAQEhdKFtDSDJdTzIpW0NASF0xW0NAQEhdKFtDQEBIXTJbQ0BAXTM0W0NIMl1bT0hdKVtDSDJdTihbQ0BIXTNbQ0gyXTQpQyg9TylbQ0hdNVtDSDJdW0NIXT1bQ0hdW0NIMl01

>  <s_epik_cmdline>  (151) 
J2VwaWtfcHl0aG9uJywgJy1waHQnLCAnMi4wJywgJy1waCcsICc3LjAnLCAnLXRuJywgJzgnLCAnLW1hJywgJzIwMCcsICctaW1hZScsICc8aW5maWxlLm1hZT4nLCAnLW9tYWUnLCAnPG91dGZpbGUubWFlPic=

>  <r_lp_tautomer_probability>  (151) 
1

>  <r_epik_Ionization_Penalty>  (151) 
1.01309e-07

>  <r_epik_Ionization_Penalty_Charging>  (151) 
0

>  <r_epik_Ionization_Penalty_Neutral>  (151) 
1.01309e-07

>  <r_epik_State_Penalty>  (151) 
-0

>  <r_epik_Charging_Adjusted_Penalty>  (151) 
0

>  <i_epik_Tot_Q>  (151) 
0

>  <i_epik_Tot_abs_Q>  (151) 
0

>  <s_lp_Force_Field>  (151) 
OPLS3e

>  <r_lp_Energy>  (151) 
16.1119

>  <b_lp_Chiralities_Consistent>  (151) 
1

>  <s_lp_Variant>  (151) 
44:0-1

>  <s_i_glide_gridfile>  (151) 
pfpi4k_grid

>  <i_i_glide_lignum>  (151) 
24

>  <i_i_glide_rotatable_bonds>  (151) 
4

>  <r_i_docking_score>  (151) 
-2.31376

>  <r_i_glide_ligand_efficiency>  (151) 
-0.0925503

>  <r_i_glide_ligand_efficiency_sa>  (151) 
-0.270619

>  <r_i_glide_ligand_efficiency_ln>  (151) 
-0.54843

>  <r_i_glide_gscore>  (151) 
-2.31376

>  <r_i_glide_lipo>  (151) 
-0.228964

>  <r_i_glide_hbond>  (151) 
-0.0329585

>  <r_i_glide_metal>  (151) 
-0

>  <r_i_glide_rewards>  (151) 
-1.02667

>  <r_i_glide_evdw>  (151) 
-19.6757

>  <r_i_glide_ecoul>  (151) 
-2.99619

>  <r_i_glide_erotb>  (151) 
0.468041

>  <r_i_glide_esite>  (151) 
-0.0599911

>  <r_i_glide_emodel>  (151) 
-27.1426

>  <r_i_glide_energy>  (151) 
-22.6719

>  <r_i_glide_einternal>  (151) 
0.241114

>  <r_i_glide_intrahb_reward>  (151) 
-0

>  <i_i_glide_confnum>  (151) 
1

>  <i_i_glide_posenum>  (151) 
3

>  <r_i_glide_eff_state_penalty>  (151) 
0

>  <ligand_id>  (151) 
44

>  <original_smiles>  (151) 
CC1(C)OC2COC3C(CN(C(=O)C4CC=CC4)C4CC34CO)C2O1

>  <smiles>  (151) 
[H]OC([H])([H])C12C([H])([H])C1([H])N(C(=O)C1([H])C([H])([H])C([H])=C([H])C1([H])[H])C([H])([H])C1([H])C3([H])OC(C([H])([H])[H])(C([H])([H])[H])OC3([H])C([H])([H])OC12[H]

$$$$
45:0:0
     RDKit          3D

 44 48  0  0  1  0  0  0  0  0999 V2000
    3.8354   -1.2054   -3.6594 C   0  0  0  0  0  0  0  0  0  0  0  0
    3.9397   -0.9311   -2.1547 C   0  0  0  0  0  0  0  0  0  0  0  0
    4.9206   -1.8667   -1.4410 C   0  0  0  0  0  0  0  0  0  0  0  0
    4.5855   -3.3529   -1.6814 C   0  0  0  0  0  0  0  0  0  0  0  0
    4.5025   -3.6008   -3.2090 C   0  0  0  0  0  0  0  0  0  0  0  0
    3.4826   -2.6786   -3.9022 C   0  0  0  0  0  0  0  0  0  0  0  0
    3.3407   -3.7396   -1.0866 O   0  0  0  0  0  0  0  0  0  0  0  0
    3.4341   -3.5950    0.4211 O   0  0  0  0  0  0  0  0  0  0  0  0
    4.5001   -4.4255    0.9126 C   0  0  0  0  0  0  0  0  0  0  0  0
    5.7401   -3.9984    0.3279 O   0  0  0  0  0  0  0  0  0  0  0  0
    5.6413   -4.1681   -1.1641 O   0  0  0  0  0  0  0  0  0  0  0  0
    4.5872   -4.2063    2.4523 C   0  0  1  0  0  0  0  0  0  0  0  0
    3.2639   -4.6302    3.1365 C   0  0  0  0  0  0  0  0  0  0  0  0
    3.0030   -6.1281    2.8685 C   0  0  2  0  0  0  0  0  0  0  0  0
    4.1480   -6.9664    3.4742 C   0  0  0  0  0  0  0  0  0  0  0  0
    5.4702   -6.5461    2.7967 C   0  0  2  0  0  0  0  0  0  0  0  0
    5.7306   -5.0514    3.0634 C   0  0  0  0  0  0  0  0  0  0  0  0
    5.3942   -6.7766    1.2760 C   0  0  0  0  0  0  0  0  0  0  0  0
    4.2386   -5.9470    0.6736 C   0  0  1  0  0  0  0  0  0  0  0  0
    2.9192   -6.3722    1.3485 C   0  0  0  0  0  0  0  0  0  0  0  0
    4.7778   -0.9559   -4.1579 H   0  0  0  0  0  0  0  0  0  0  0  0
    3.0785   -0.5548   -4.1085 H   0  0  0  0  0  0  0  0  0  0  0  0
    4.2374    0.1078   -2.0029 H   0  0  0  0  0  0  0  0  0  0  0  0
    2.9516   -1.0481   -1.7115 H   0  0  0  0  0  0  0  0  0  0  0  0
    5.9216   -1.6813   -1.8172 H   0  0  0  0  0  0  0  0  0  0  0  0
    4.9480   -1.6271   -0.3803 H   0  0  0  0  0  0  0  0  0  0  0  0
    5.4900   -3.4464   -3.6427 H   0  0  0  0  0  0  0  0  0  0  0  0
    4.2458   -4.6372   -3.4327 H   0  0  0  0  0  0  0  0  0  0  0  0
    2.4759   -2.8722   -3.5287 H   0  0  0  0  0  0  0  0  0  0  0  0
    3.4483   -2.8793   -4.9707 H   0  0  0  0  0  0  0  0  0  0  0  0
    4.7754   -3.1543    2.6652 H   0  0  0  0  0  0  0  0  0  0  0  0
    3.3155   -4.4450    4.2127 H   0  0  0  0  0  0  0  0  0  0  0  0
    2.4270   -4.0342    2.7714 H   0  0  0  0  0  0  0  0  0  0  0  0
    2.0697   -6.4284    3.3459 H   0  0  0  0  0  0  0  0  0  0  0  0
    4.2072   -6.8172    4.5542 H   0  0  0  0  0  0  0  0  0  0  0  0
    3.9627   -8.0314    3.3279 H   0  0  0  0  0  0  0  0  0  0  0  0
    6.2813   -7.1370    3.2226 H   0  0  0  0  0  0  0  0  0  0  0  0
    6.6913   -4.7675    2.6371 H   0  0  0  0  0  0  0  0  0  0  0  0
    5.8073   -4.8736    4.1387 H   0  0  0  0  0  0  0  0  0  0  0  0
    6.3480   -6.4991    0.8244 H   0  0  0  0  0  0  0  0  0  0  0  0
    5.2538   -7.8374    1.0729 H   0  0  0  0  0  0  0  0  0  0  0  0
    4.1662   -6.1572   -0.3941 H   0  0  0  0  0  0  0  0  0  0  0  0
    2.7214   -7.4273    1.1637 H   0  0  0  0  0  0  0  0  0  0  0  0
    2.0766   -5.8197    0.9336 H   0  0  0  0  0  0  0  0  0  0  0  0
  1  6  1  0
  1  2  1  0
  1 21  1  0
  1 22  1  0
  2  3  1  0
  2 23  1  0
  2 24  1  0
  3  4  1  0
  3 25  1  0
  3 26  1  0
  4 11  1  0
  4  5  1  0
  4  7  1  0
  5  6  1  0
  5 27  1  0
  5 28  1  0
  6 29  1  0
  6 30  1  0
  7  8  1  0
  8  9  1  0
  9 19  1  0
  9 10  1  0
  9 12  1  0
 10 11  1  0
 12 17  1  0
 12 13  1  0
 12 31  1  6
 13 14  1  0
 13 32  1  0
 13 33  1  0
 14 20  1  0
 14 15  1  0
 14 34  1  1
 15 16  1  0
 15 35  1  0
 15 36  1  0
 16 17  1  0
 16 18  1  0
 16 37  1  1
 17 38  1  0
 17 39  1  0
 18 19  1  0
 18 40  1  0
 18 41  1  0
 19 20  1  0
 19 42  1  6
 20 43  1  0
 20 44  1  0
M  END
>  <i_m_ct_stereo_status>  (152) 
1

>  <s_m_source_file>  (152) 
/var/tmp/pbs.5076255.sched01/tmp5eg4wc32/41mqp692j8.sdf

>  <i_m_source_file_index>  (152) 
25

>  <i_lp_mmshare_version>  (152) 
48012

>  <i_f3d_flags>  (152) 
0

>  <s_epik_input>  (152) 
W0NIMl0xW0NIMl1bQ0gyXVtDSDJdW0NIMl1DMTJPT0MzKE9PMilbQ0BIXTRbQ0gyXVtDQEBIXTVbQ0gyXVtDQEhdKFtDSDJdNClbQ0gyXVtDQEhdM1tDSDJdNQ==

>  <s_epik_cmdline>  (152) 
J2VwaWtfcHl0aG9uJywgJy1waHQnLCAnMi4wJywgJy1waCcsICc3LjAnLCAnLXRuJywgJzgnLCAnLW1hJywgJzIwMCcsICctaW1hZScsICc8aW5maWxlLm1hZT4nLCAnLW9tYWUnLCAnPG91dGZpbGUubWFlPic=

>  <r_lp_tautomer_probability>  (152) 
1

>  <r_epik_Ionization_Penalty>  (152) 
0

>  <r_epik_Ionization_Penalty_Charging>  (152) 
0

>  <r_epik_Ionization_Penalty_Neutral>  (152) 
0

>  <r_epik_State_Penalty>  (152) 
-0

>  <r_epik_Charging_Adjusted_Penalty>  (152) 
0

>  <i_epik_Tot_Q>  (152) 
0

>  <i_epik_Tot_abs_Q>  (152) 
0

>  <s_lp_Force_Field>  (152) 
OPLS3e

>  <r_lp_Energy>  (152) 
-1.89106

>  <b_lp_Chiralities_Consistent>  (152) 
1

>  <s_lp_Variant>  (152) 
45:0-1

>  <s_i_glide_gridfile>  (152) 
pfpi4k_grid

>  <i_i_glide_lignum>  (152) 
25

>  <i_i_glide_rotatable_bonds>  (152) 
0

>  <r_i_docking_score>  (152) 
-3.18016

>  <r_i_glide_ligand_efficiency>  (152) 
-0.159008

>  <r_i_glide_ligand_efficiency_sa>  (152) 
-0.431614

>  <r_i_glide_ligand_efficiency_ln>  (152) 
-0.79589

>  <r_i_glide_gscore>  (152) 
-3.18016

>  <r_i_glide_lipo>  (152) 
-0.609767

>  <r_i_glide_hbond>  (152) 
0

>  <r_i_glide_metal>  (152) 
-0

>  <r_i_glide_rewards>  (152) 
-1.55178

>  <r_i_glide_evdw>  (152) 
-22.1908

>  <r_i_glide_ecoul>  (152) 
0.606162

>  <r_i_glide_erotb>  (152) 
0

>  <r_i_glide_esite>  (152) 
0

>  <r_i_glide_emodel>  (152) 
-26.2118

>  <r_i_glide_energy>  (152) 
-21.5847

>  <r_i_glide_einternal>  (152) 
0

>  <r_i_glide_intrahb_reward>  (152) 
-0

>  <i_i_glide_confnum>  (152) 
1

>  <i_i_glide_posenum>  (152) 
4

>  <r_i_glide_eff_state_penalty>  (152) 
0

>  <ligand_id>  (152) 
45

>  <original_smiles>  (152) 
C1CCC2(CC1)OOC1(OO2)C2CC3CC(C2)CC1C3

>  <smiles>  (152) 
[H]C1([H])C([H])([H])C([H])([H])C2(OOC3(OO2)C2([H])C([H])([H])C4([H])C([H])([H])C([H])(C2([H])[H])C([H])([H])C3([H])C4([H])[H])C([H])([H])C1([H])[H]

$$$$
45:0:1
     RDKit          3D

 44 48  0  0  1  0  0  0  0  0999 V2000
    4.1503   -3.2666   -0.2508 C   0  0  0  0  0  0  0  0  0  0  0  0
    2.7858   -3.5718    0.3925 C   0  0  0  0  0  0  0  0  0  0  0  0
    2.9336   -4.2326    1.7673 C   0  0  0  0  0  0  0  0  0  0  0  0
    3.7817   -5.5100    1.7223 C   0  0  0  0  0  0  0  0  0  0  0  0
    5.1438   -5.2110    1.0623 C   0  0  0  0  0  0  0  0  0  0  0  0
    5.0047   -4.5455   -0.3156 C   0  0  0  0  0  0  0  0  0  0  0  0
    3.1536   -6.5656    0.9901 O   0  0  0  0  0  0  0  0  0  0  0  0
    1.8583   -6.9454    1.6589 O   0  0  0  0  0  0  0  0  0  0  0  0
    2.1452   -7.4212    2.9791 C   0  0  0  0  0  0  0  0  0  0  0  0
    2.7484   -6.3423    3.7057 O   0  0  0  0  0  0  0  0  0  0  0  0
    4.0383   -5.9737    3.0472 O   0  0  0  0  0  0  0  0  0  0  0  0
    0.7773   -7.7744    3.6526 C   0  0  1  0  0  0  0  0  0  0  0  0
    0.0687   -8.9105    2.8803 C   0  0  0  0  0  0  0  0  0  0  0  0
    0.9610  -10.1703    2.8754 C   0  0  2  0  0  0  0  0  0  0  0  0
    1.1780  -10.6463    4.3308 C   0  0  0  0  0  0  0  0  0  0  0  0
    1.8793   -9.5156    5.1135 C   0  0  2  0  0  0  0  0  0  0  0  0
    0.9890   -8.2558    5.1113 C   0  0  0  0  0  0  0  0  0  0  0  0
    3.2341   -9.1646    4.4569 C   0  0  0  0  0  0  0  0  0  0  0  0
    3.0215   -8.7035    2.9999 C   0  0  1  0  0  0  0  0  0  0  0  0
    2.3224   -9.8315    2.2283 C   0  0  0  0  0  0  0  0  0  0  0  0
    4.6718   -2.4927    0.3228 H   0  0  0  0  0  0  0  0  0  0  0  0
    4.0075   -2.8540   -1.2518 H   0  0  0  0  0  0  0  0  0  0  0  0
    2.2193   -2.6378    0.4773 H   0  0  0  0  0  0  0  0  0  0  0  0
    2.2189   -4.2163   -0.2798 H   0  0  0  0  0  0  0  0  0  0  0  0
    3.4119   -3.5341    2.4389 H   0  0  0  0  0  0  0  0  0  0  0  0
    1.9407   -4.4134    2.1927 H   0  0  0  0  0  0  0  0  0  0  0  0
    5.6964   -4.5414    1.7079 H   0  0  0  0  0  0  0  0  0  0  0  0
    5.7454   -6.1177    0.9692 H   0  0  0  0  0  0  0  0  0  0  0  0
    4.5637   -5.2363   -1.0335 H   0  0  0  0  0  0  0  0  0  0  0  0
    5.9923   -4.2849   -0.7163 H   0  0  0  0  0  0  0  0  0  0  0  0
    0.1273   -6.8976    3.6694 H   0  0  0  0  0  0  0  0  0  0  0  0
   -0.8997   -9.1473    3.3311 H   0  0  0  0  0  0  0  0  0  0  0  0
   -0.1469   -8.6156    1.8506 H   0  0  0  0  0  0  0  0  0  0  0  0
    0.4649  -10.9731    2.3263 H   0  0  0  0  0  0  0  0  0  0  0  0
    0.2243  -10.9029    4.7999 H   0  0  0  0  0  0  0  0  0  0  0  0
    1.7768  -11.5580    4.3514 H   0  0  0  0  0  0  0  0  0  0  0  0
    2.0368   -9.8556    6.1407 H   0  0  0  0  0  0  0  0  0  0  0  0
    1.4473   -7.4799    5.7215 H   0  0  0  0  0  0  0  0  0  0  0  0
    0.0310   -8.4887    5.5858 H   0  0  0  0  0  0  0  0  0  0  0  0
    3.7258   -8.3918    5.0463 H   0  0  0  0  0  0  0  0  0  0  0  0
    3.8886  -10.0401    4.4955 H   0  0  0  0  0  0  0  0  0  0  0  0
    3.9997   -8.5117    2.5274 H   0  0  0  0  0  0  0  0  0  0  0  0
    2.9452  -10.7264    2.2098 H   0  0  0  0  0  0  0  0  0  0  0  0
    2.1645   -9.5568    1.1827 H   0  0  0  0  0  0  0  0  0  0  0  0
  1  6  1  0
  1  2  1  0
  1 21  1  0
  1 22  1  0
  2  3  1  0
  2 23  1  0
  2 24  1  0
  3  4  1  0
  3 25  1  0
  3 26  1  0
  4 11  1  0
  4  5  1  0
  4  7  1  0
  5  6  1  0
  5 27  1  0
  5 28  1  0
  6 29  1  0
  6 30  1  0
  7  8  1  0
  8  9  1  0
  9 19  1  0
  9 10  1  0
  9 12  1  0
 10 11  1  0
 12 17  1  0
 12 13  1  0
 12 31  1  1
 13 14  1  0
 13 32  1  0
 13 33  1  0
 14 20  1  0
 14 15  1  0
 14 34  1  6
 15 16  1  0
 15 35  1  0
 15 36  1  0
 16 17  1  0
 16 18  1  0
 16 37  1  1
 17 38  1  0
 17 39  1  0
 18 19  1  0
 18 40  1  0
 18 41  1  0
 19 20  1  0
 19 42  1  6
 20 43  1  0
 20 44  1  0
M  END
>  <i_m_ct_stereo_status>  (153) 
1

>  <s_m_source_file>  (153) 
/var/tmp/pbs.5076255.sched01/tmp5eg4wc32/41mqp692j8.sdf

>  <i_m_source_file_index>  (153) 
25

>  <i_lp_mmshare_version>  (153) 
48012

>  <i_f3d_flags>  (153) 
0

>  <s_epik_input>  (153) 
W0NIMl0xW0NIMl1bQ0gyXVtDSDJdW0NIMl1DMTJPT0MzKE9PMilbQ0BIXTRbQ0gyXVtDQEBIXTVbQ0gyXVtDQEhdKFtDSDJdNClbQ0gyXVtDQEhdM1tDSDJdNQ==

>  <s_epik_cmdline>  (153) 
J2VwaWtfcHl0aG9uJywgJy1waHQnLCAnMi4wJywgJy1waCcsICc3LjAnLCAnLXRuJywgJzgnLCAnLW1hJywgJzIwMCcsICctaW1hZScsICc8aW5maWxlLm1hZT4nLCAnLW9tYWUnLCAnPG91dGZpbGUubWFlPic=

>  <r_lp_tautomer_probability>  (153) 
1

>  <r_epik_Ionization_Penalty>  (153) 
0

>  <r_epik_Ionization_Penalty_Charging>  (153) 
0

>  <r_epik_Ionization_Penalty_Neutral>  (153) 
0

>  <r_epik_State_Penalty>  (153) 
-0

>  <r_epik_Charging_Adjusted_Penalty>  (153) 
0

>  <i_epik_Tot_Q>  (153) 
0

>  <i_epik_Tot_abs_Q>  (153) 
0

>  <s_lp_Force_Field>  (153) 
OPLS3e

>  <r_lp_Energy>  (153) 
-1.89106

>  <b_lp_Chiralities_Consistent>  (153) 
1

>  <s_lp_Variant>  (153) 
45:0-1

>  <s_i_glide_gridfile>  (153) 
pfpi4k_grid

>  <i_i_glide_lignum>  (153) 
25

>  <i_i_glide_rotatable_bonds>  (153) 
0

>  <r_i_docking_score>  (153) 
-3.01877

>  <r_i_glide_ligand_efficiency>  (153) 
-0.150939

>  <r_i_glide_ligand_efficiency_sa>  (153) 
-0.409711

>  <r_i_glide_ligand_efficiency_ln>  (153) 
-0.7555

>  <r_i_glide_gscore>  (153) 
-3.01877

>  <r_i_glide_lipo>  (153) 
-0.281257

>  <r_i_glide_hbond>  (153) 
0

>  <r_i_glide_metal>  (153) 
-0

>  <r_i_glide_rewards>  (153) 
-1.51968

>  <r_i_glide_evdw>  (153) 
-21.1712

>  <r_i_glide_ecoul>  (153) 
-1.01901

>  <r_i_glide_erotb>  (153) 
0

>  <r_i_glide_esite>  (153) 
-0.00642566

>  <r_i_glide_emodel>  (153) 
-26.5794

>  <r_i_glide_energy>  (153) 
-22.1902

>  <r_i_glide_einternal>  (153) 
0

>  <r_i_glide_intrahb_reward>  (153) 
-0

>  <i_i_glide_confnum>  (153) 
1

>  <i_i_glide_posenum>  (153) 
2

>  <r_i_glide_eff_state_penalty>  (153) 
0

>  <ligand_id>  (153) 
45

>  <original_smiles>  (153) 
C1CCC2(CC1)OOC1(OO2)C2CC3CC(C2)CC1C3

>  <smiles>  (153) 
[H]C1([H])C([H])([H])C([H])([H])C2(OOC3(OO2)C2([H])C([H])([H])C4([H])C([H])([H])C([H])(C2([H])[H])C([H])([H])C3([H])C4([H])[H])C([H])([H])C1([H])[H]

$$$$
45:0:2
     RDKit          3D

 44 48  0  0  1  0  0  0  0  0999 V2000
    0.3622    1.6486    4.2728 C   0  0  0  0  0  0  0  0  0  0  0  0
    1.5183    0.7348    4.7029 C   0  0  0  0  0  0  0  0  0  0  0  0
    2.6688    0.7375    3.6769 C   0  0  0  0  0  0  0  0  0  0  0  0
    2.2031    0.3544    2.2551 C   0  0  0  0  0  0  0  0  0  0  0  0
    1.0309    1.2708    1.8506 C   0  0  0  0  0  0  0  0  0  0  0  0
   -0.1317    1.2744    2.8679 C   0  0  0  0  0  0  0  0  0  0  0  0
    1.7650   -0.9914    2.1726 O   0  0  0  0  0  0  0  0  0  0  0  0
    2.9228   -1.9111    2.4732 O   0  0  0  0  0  0  0  0  0  0  0  0
    3.9684   -1.6879    1.5348 C   0  0  0  0  0  0  0  0  0  0  0  0
    4.4072   -0.3445    1.6546 O   0  0  0  0  0  0  0  0  0  0  0  0
    3.2534    0.5780    1.3274 O   0  0  0  0  0  0  0  0  0  0  0  0
    5.1519   -2.6291    1.9083 C   0  0  1  0  0  0  0  0  0  0  0  0
    4.7120   -4.1139    1.8138 C   0  0  0  0  0  0  0  0  0  0  0  0
    4.2711   -4.4343    0.3693 C   0  0  2  0  0  0  0  0  0  0  0  0
    5.4550   -4.2177   -0.5870 C   0  0  0  0  0  0  0  0  0  0  0  0
    5.9116   -2.7461   -0.4997 C   0  0  2  0  0  0  0  0  0  0  0  0
    6.3485   -2.4264    0.9429 C   0  0  0  0  0  0  0  0  0  0  0  0
    4.7514   -1.8073   -0.8859 C   0  0  0  0  0  0  0  0  0  0  0  0
    3.5549   -2.0276    0.0750 C   0  0  1  0  0  0  0  0  0  0  0  0
    3.1078   -3.5059   -0.0295 C   0  0  0  0  0  0  0  0  0  0  0  0
    0.6804    2.6971    4.2898 H   0  0  0  0  0  0  0  0  0  0  0  0
   -0.4617    1.5764    4.9882 H   0  0  0  0  0  0  0  0  0  0  0  0
    1.8880    1.0549    5.6799 H   0  0  0  0  0  0  0  0  0  0  0  0
    1.1441   -0.2816    4.8276 H   0  0  0  0  0  0  0  0  0  0  0  0
    3.0936    1.7395    3.6400 H   0  0  0  0  0  0  0  0  0  0  0  0
    3.4692    0.0948    4.0285 H   0  0  0  0  0  0  0  0  0  0  0  0
    1.3916    2.2996    1.7476 H   0  0  0  0  0  0  0  0  0  0  0  0
    0.6342    0.9919    0.8731 H   0  0  0  0  0  0  0  0  0  0  0  0
   -0.6015    0.2910    2.8987 H   0  0  0  0  0  0  0  0  0  0  0  0
   -0.9027    1.9805    2.5525 H   0  0  0  0  0  0  0  0  0  0  0  0
    5.4823   -2.4241    2.9261 H   0  0  0  0  0  0  0  0  0  0  0  0
    5.5320   -4.7766    2.1091 H   0  0  0  0  0  0  0  0  0  0  0  0
    3.8971   -4.3259    2.5056 H   0  0  0  0  0  0  0  0  0  0  0  0
    3.9548   -5.4746    0.2975 H   0  0  0  0  0  0  0  0  0  0  0  0
    6.2784   -4.8860   -0.3212 H   0  0  0  0  0  0  0  0  0  0  0  0
    5.1734   -4.4786   -1.6086 H   0  0  0  0  0  0  0  0  0  0  0  0
    6.7500   -2.6020   -1.1785 H   0  0  0  0  0  0  0  0  0  0  0  0
    6.7290   -1.4072    1.0035 H   0  0  0  0  0  0  0  0  0  0  0  0
    7.1815   -3.0762    1.2275 H   0  0  0  0  0  0  0  0  0  0  0  0
    5.0873   -0.7712   -0.8418 H   0  0  0  0  0  0  0  0  0  0  0  0
    4.4541   -1.9943   -1.9184 H   0  0  0  0  0  0  0  0  0  0  0  0
    2.7246   -1.3967   -0.2392 H   0  0  0  0  0  0  0  0  0  0  0  0
    2.7859   -3.7372   -1.0469 H   0  0  0  0  0  0  0  0  0  0  0  0
    2.2505   -3.6925    0.6162 H   0  0  0  0  0  0  0  0  0  0  0  0
  1  6  1  0
  1  2  1  0
  1 21  1  0
  1 22  1  0
  2  3  1  0
  2 23  1  0
  2 24  1  0
  3  4  1  0
  3 25  1  0
  3 26  1  0
  4 11  1  0
  4  5  1  0
  4  7  1  0
  5  6  1  0
  5 27  1  0
  5 28  1  0
  6 29  1  0
  6 30  1  0
  7  8  1  0
  8  9  1  0
  9 19  1  0
  9 10  1  0
  9 12  1  0
 10 11  1  0
 12 17  1  0
 12 13  1  0
 12 31  1  1
 13 14  1  0
 13 32  1  0
 13 33  1  0
 14 20  1  0
 14 15  1  0
 14 34  1  1
 15 16  1  0
 15 35  1  0
 15 36  1  0
 16 17  1  0
 16 18  1  0
 16 37  1  6
 17 38  1  0
 17 39  1  0
 18 19  1  0
 18 40  1  0
 18 41  1  0
 19 20  1  0
 19 42  1  6
 20 43  1  0
 20 44  1  0
M  END
>  <i_m_ct_stereo_status>  (154) 
1

>  <s_m_source_file>  (154) 
/var/tmp/pbs.5076255.sched01/tmp5eg4wc32/41mqp692j8.sdf

>  <i_m_source_file_index>  (154) 
25

>  <i_lp_mmshare_version>  (154) 
48012

>  <i_f3d_flags>  (154) 
0

>  <s_epik_input>  (154) 
W0NIMl0xW0NIMl1bQ0gyXVtDSDJdW0NIMl1DMTJPT0MzKE9PMilbQ0BIXTRbQ0gyXVtDQEBIXTVbQ0gyXVtDQEhdKFtDSDJdNClbQ0gyXVtDQEhdM1tDSDJdNQ==

>  <s_epik_cmdline>  (154) 
J2VwaWtfcHl0aG9uJywgJy1waHQnLCAnMi4wJywgJy1waCcsICc3LjAnLCAnLXRuJywgJzgnLCAnLW1hJywgJzIwMCcsICctaW1hZScsICc8aW5maWxlLm1hZT4nLCAnLW9tYWUnLCAnPG91dGZpbGUubWFlPic=

>  <r_lp_tautomer_probability>  (154) 
1

>  <r_epik_Ionization_Penalty>  (154) 
0

>  <r_epik_Ionization_Penalty_Charging>  (154) 
0

>  <r_epik_Ionization_Penalty_Neutral>  (154) 
0

>  <r_epik_State_Penalty>  (154) 
-0

>  <r_epik_Charging_Adjusted_Penalty>  (154) 
0

>  <i_epik_Tot_Q>  (154) 
0

>  <i_epik_Tot_abs_Q>  (154) 
0

>  <s_lp_Force_Field>  (154) 
OPLS3e

>  <r_lp_Energy>  (154) 
-1.89106

>  <b_lp_Chiralities_Consistent>  (154) 
1

>  <s_lp_Variant>  (154) 
45:0-1

>  <s_i_glide_gridfile>  (154) 
pfpi4k_grid

>  <i_i_glide_lignum>  (154) 
25

>  <i_i_glide_rotatable_bonds>  (154) 
0

>  <r_i_docking_score>  (154) 
-2.90265

>  <r_i_glide_ligand_efficiency>  (154) 
-0.145132

>  <r_i_glide_ligand_efficiency_sa>  (154) 
-0.39395

>  <r_i_glide_ligand_efficiency_ln>  (154) 
-0.726437

>  <r_i_glide_gscore>  (154) 
-2.90265

>  <r_i_glide_lipo>  (154) 
-0.246246

>  <r_i_glide_hbond>  (154) 
0

>  <r_i_glide_metal>  (154) 
-0

>  <r_i_glide_rewards>  (154) 
-1.49755

>  <r_i_glide_evdw>  (154) 
-22.2417

>  <r_i_glide_ecoul>  (154) 
-0.125106

>  <r_i_glide_erotb>  (154) 
0

>  <r_i_glide_esite>  (154) 
-0.0279989

>  <r_i_glide_emodel>  (154) 
-26.6176

>  <r_i_glide_energy>  (154) 
-22.3668

>  <r_i_glide_einternal>  (154) 
0

>  <r_i_glide_intrahb_reward>  (154) 
-0

>  <i_i_glide_confnum>  (154) 
1

>  <i_i_glide_posenum>  (154) 
6

>  <r_i_glide_eff_state_penalty>  (154) 
0

>  <ligand_id>  (154) 
45

>  <original_smiles>  (154) 
C1CCC2(CC1)OOC1(OO2)C2CC3CC(C2)CC1C3

>  <smiles>  (154) 
[H]C1([H])C([H])([H])C([H])([H])C2(OOC3(OO2)C2([H])C([H])([H])C4([H])C([H])([H])C([H])(C2([H])[H])C([H])([H])C3([H])C4([H])[H])C([H])([H])C1([H])[H]

$$$$
46:0:0
     RDKit          3D

 46 50  0  0  1  0  0  0  0  0999 V2000
    4.0614    0.2581    1.4311 C   0  0  0  0  0  0  0  0  0  0  0  0
    4.0105   -1.0417    0.8487 O   0  0  0  0  0  0  0  0  0  0  0  0
    5.1729   -1.8834    0.8976 C   0  0  2  0  0  0  0  0  0  0  0  0
    6.4206   -1.0843    0.4404 C   0  0  0  0  0  0  0  0  0  0  0  0
    7.7061   -1.9284    0.2945 C   0  0  0  0  0  0  0  0  0  0  0  0
    7.4353   -3.3047   -0.2891 C   0  0  0  0  0  0  0  0  0  0  0  0
    8.2744   -4.2066   -0.1945 O   0  0  0  0  0  0  0  0  0  0  0  0
    6.0710   -3.5362   -0.9323 C   0  0  2  0  0  0  0  0  0  0  0  0
    5.9138   -2.7179   -2.2567 C   0  0  0  0  0  0  0  0  0  0  0  0
    4.4455   -2.3770   -2.3776 C   0  0  0  0  0  0  0  0  0  0  0  0
    3.6071   -2.2933   -3.5068 C   0  0  0  0  0  0  0  0  0  0  0  0
    2.2667   -2.7472   -3.3992 C   0  0  0  0  0  0  0  0  0  0  0  0
    1.8389   -3.4418   -2.2395 C   0  0  0  0  0  0  0  0  0  0  0  0
    2.6844   -3.5289   -1.1180 C   0  0  0  0  0  0  0  0  0  0  0  0
    3.9058   -2.8730   -1.1946 C   0  0  0  0  0  0  0  0  0  0  0  0
    4.8604   -3.0938   -0.0654 C   0  0  2  0  0  0  0  0  0  0  0  0
    3.9903   -4.0508    0.7709 C   0  0  1  0  0  0  0  0  0  0  0  0
    2.8492   -4.6113   -0.0559 C   0  0  0  0  0  0  0  0  0  0  0  0
    4.6779   -4.7883    1.8551 N   0  0  1  0  0  0  0  0  0  0  0  0
    5.2453   -6.0931    1.4436 C   0  0  0  0  0  0  0  0  0  0  0  0
    5.6672   -3.9000    2.5344 C   0  0  0  0  0  0  0  0  0  0  0  0
    5.3278   -2.3860    2.3850 C   0  0  0  0  0  0  0  0  0  0  0  0
    3.0782    0.7234    1.3729 H   0  0  0  0  0  0  0  0  0  0  0  0
    4.7210    0.9226    0.8786 H   0  0  0  0  0  0  0  0  0  0  0  0
    4.3702    0.2460    2.4771 H   0  0  0  0  0  0  0  0  0  0  0  0
    6.1886   -0.5653   -0.4857 H   0  0  0  0  0  0  0  0  0  0  0  0
    6.6100   -0.2887    1.1522 H   0  0  0  0  0  0  0  0  0  0  0  0
    8.4705   -1.4311   -0.3013 H   0  0  0  0  0  0  0  0  0  0  0  0
    8.1382   -2.0837    1.2764 H   0  0  0  0  0  0  0  0  0  0  0  0
    5.9239   -4.5900   -1.1649 H   0  0  0  0  0  0  0  0  0  0  0  0
    6.4608   -1.7848   -2.2605 H   0  0  0  0  0  0  0  0  0  0  0  0
    6.2644   -3.2956   -3.1138 H   0  0  0  0  0  0  0  0  0  0  0  0
    3.9872   -1.9553   -4.4592 H   0  0  0  0  0  0  0  0  0  0  0  0
    1.5992   -2.6675   -4.2437 H   0  0  0  0  0  0  0  0  0  0  0  0
    0.8865   -3.9315   -2.2235 H   0  0  0  0  0  0  0  0  0  0  0  0
    3.3452   -3.3999    1.3568 H   0  0  0  0  0  0  0  0  0  0  0  0
    1.9293   -4.7912    0.4987 H   0  0  0  0  0  0  0  0  0  0  0  0
    3.1663   -5.5420   -0.5188 H   0  0  0  0  0  0  0  0  0  0  0  0
    5.9978   -5.9709    0.6721 H   0  0  0  0  0  0  0  0  0  0  0  0
    4.4667   -6.7471    1.0644 H   0  0  0  0  0  0  0  0  0  0  0  0
    5.7113   -6.5819    2.2936 H   0  0  0  0  0  0  0  0  0  0  0  0
    5.7155   -4.1709    3.5866 H   0  0  0  0  0  0  0  0  0  0  0  0
    6.6617   -4.1051    2.1490 H   0  0  0  0  0  0  0  0  0  0  0  0
    6.0762   -1.7989    2.8983 H   0  0  0  0  0  0  0  0  0  0  0  0
    4.4055   -2.1850    2.9411 H   0  0  0  0  0  0  0  0  0  0  0  0
    3.9720   -4.9941    2.5531 H   0  0  0  0  0  0  0  0  0  0  0  0
  1  2  1  0
  1 23  1  0
  1 24  1  0
  1 25  1  0
  3  2  1  1
  3 16  1  0
  3 22  1  0
  3  4  1  0
  4  5  1  0
  4 26  1  0
  4 27  1  0
  5  6  1  0
  5 28  1  0
  5 29  1  0
  6  7  2  0
  6  8  1  0
  8 16  1  0
  8  9  1  0
  8 30  1  6
  9 10  1  0
  9 31  1  0
  9 32  1  0
 10 15  2  0
 10 11  1  0
 11 12  2  0
 11 33  1  0
 12 13  1  0
 12 34  1  0
 13 14  2  0
 13 35  1  0
 14 18  1  0
 14 15  1  0
 16 15  1  6
 16 17  1  0
 17 18  1  0
 17 19  1  0
 17 36  1  1
 18 37  1  0
 18 38  1  0
 19 20  1  0
 19 21  1  0
 19 46  1  1
 20 39  1  0
 20 40  1  0
 20 41  1  0
 21 22  1  0
 21 42  1  0
 21 43  1  0
 22 44  1  0
 22 45  1  0
M  CHG  1  19   1
M  END
>  <i_m_ct_stereo_status>  (155) 
1

>  <s_m_source_file>  (155) 
/var/tmp/pbs.5076255.sched01/tmp5eg4wc32/41mqp692j8.sdf

>  <i_m_source_file_index>  (155) 
26

>  <i_lp_mmshare_version>  (155) 
48012

>  <i_f3d_flags>  (155) 
0

>  <s_epik_input>  (155) 
W0NIM11PW0NAQF0xKFtDQF0yMzQpW0NIMl1bQ0gyXUMoPU8pW0NAQEhdMltDSDJdYzVjM2MoW2NIXVtjSF1bY0hdNSlbQ0gyXVtDQEhdNE4oW0NIM10pW0NIMl1bQ0gyXTE=

>  <s_epik_cmdline>  (155) 
J2VwaWtfcHl0aG9uJywgJy1waHQnLCAnMi4wJywgJy1waCcsICc3LjAnLCAnLXRuJywgJzgnLCAnLW1hJywgJzIwMCcsICctaW1hZScsICc8aW5maWxlLm1hZT4nLCAnLW9tYWUnLCAnPG91dGZpbGUubWFlPic=

>  <r_lp_tautomer_probability>  (155) 
1

>  <r_epik_Ionization_Penalty>  (155) 
0.051519

>  <r_epik_Ionization_Penalty_Charging>  (155) 
0.051519

>  <r_epik_Ionization_Penalty_Neutral>  (155) 
8.25291e-12

>  <r_epik_State_Penalty>  (155) 
0.0441399

>  <r_epik_Charging_Adjusted_Penalty>  (155) 
0.095659

>  <i_epik_Tot_Q>  (155) 
1

>  <i_epik_Tot_abs_Q>  (155) 
1

>  <s_lp_Force_Field>  (155) 
OPLS3e

>  <r_lp_Energy>  (155) 
100.682

>  <b_lp_Chiralities_Consistent>  (155) 
1

>  <s_lp_Variant>  (155) 
46:0-1

>  <s_i_glide_gridfile>  (155) 
pfpi4k_grid

>  <i_i_glide_lignum>  (155) 
26

>  <i_i_glide_rotatable_bonds>  (155) 
1

>  <r_i_docking_score>  (155) 
-3.67541

>  <r_i_glide_ligand_efficiency>  (155) 
-0.167064

>  <r_i_glide_ligand_efficiency_sa>  (155) 
-0.46812

>  <r_i_glide_ligand_efficiency_ln>  (155) 
-0.898403

>  <r_i_glide_gscore>  (155) 
-3.67541

>  <r_i_glide_lipo>  (155) 
-1.06832

>  <r_i_glide_hbond>  (155) 
0

>  <r_i_glide_metal>  (155) 
-0

>  <r_i_glide_rewards>  (155) 
-1.61019

>  <r_i_glide_evdw>  (155) 
-19.9999

>  <r_i_glide_ecoul>  (155) 
0.0206478

>  <r_i_glide_erotb>  (155) 
0

>  <r_i_glide_esite>  (155) 
0

>  <r_i_glide_emodel>  (155) 
-23.3065

>  <r_i_glide_energy>  (155) 
-19.9792

>  <r_i_glide_einternal>  (155) 
0.331709

>  <r_i_glide_intrahb_reward>  (155) 
-0

>  <i_i_glide_confnum>  (155) 
2

>  <i_i_glide_posenum>  (155) 
1

>  <r_i_glide_eff_state_penalty>  (155) 
0

>  <ligand_id>  (155) 
46

>  <original_smiles>  (155) 
COC12CCC(=O)C3Cc4cccc5c4C31C(C5)N(C)CC2

>  <smiles>  (155) 
[H]c1c([H])c2c3c(c1[H])C([H])([H])C1([H])C34C([H])(C(=O)C([H])([H])C([H])([H])C4(OC([H])([H])[H])C([H])([H])C([H])([H])[N+]1([H])C([H])([H])[H])C2([H])[H]

$$$$
46:0:1
     RDKit          3D

 46 50  0  0  1  0  0  0  0  0999 V2000
    2.5331    0.5076    1.7205 C   0  0  0  0  0  0  0  0  0  0  0  0
    2.9109   -0.6292    0.9472 O   0  0  0  0  0  0  0  0  0  0  0  0
    4.0202   -1.4335    1.3535 C   0  0  2  0  0  0  0  0  0  0  0  0
    5.2706   -0.5247    1.4704 C   0  0  0  0  0  0  0  0  0  0  0  0
    6.5636   -1.3035    1.7279 C   0  0  0  0  0  0  0  0  0  0  0  0
    6.6387   -2.6166    0.9432 C   0  0  0  0  0  0  0  0  0  0  0  0
    7.4327   -3.5029    1.2262 O   0  0  0  0  0  0  0  0  0  0  0  0
    5.6426   -2.8264   -0.1717 C   0  0  2  0  0  0  0  0  0  0  0  0
    5.9211   -1.8614   -1.3594 C   0  0  0  0  0  0  0  0  0  0  0  0
    4.5827   -1.5945   -1.9836 C   0  0  0  0  0  0  0  0  0  0  0  0
    4.2168   -1.4130   -3.3321 C   0  0  0  0  0  0  0  0  0  0  0  0
    2.9881   -1.9491   -3.7613 C   0  0  0  0  0  0  0  0  0  0  0  0
    2.2475   -2.8503   -2.9687 C   0  0  0  0  0  0  0  0  0  0  0  0
    2.6373   -3.0383   -1.6253 C   0  0  0  0  0  0  0  0  0  0  0  0
    3.6993   -2.2659   -1.1622 C   0  0  0  0  0  0  0  0  0  0  0  0
    4.1774   -2.5461    0.2338 C   0  0  2  0  0  0  0  0  0  0  0  0
    3.1501   -3.6246    0.6053 C   0  0  1  0  0  0  0  0  0  0  0  0
    2.4634   -4.1641   -0.6373 C   0  0  0  0  0  0  0  0  0  0  0  0
    3.4726   -4.4529    1.7899 N   0  0  1  0  0  0  0  0  0  0  0  0
    4.2651   -5.6723    1.4988 C   0  0  0  0  0  0  0  0  0  0  0  0
    4.0630   -3.6078    2.8706 C   0  0  0  0  0  0  0  0  0  0  0  0
    3.6679   -2.1052    2.7422 C   0  0  0  0  0  0  0  0  0  0  0  0
    1.6092    0.9089    1.3076 H   0  0  0  0  0  0  0  0  0  0  0  0
    3.2702    1.3068    1.6671 H   0  0  0  0  0  0  0  0  0  0  0  0
    2.3418    0.2727    2.7669 H   0  0  0  0  0  0  0  0  0  0  0  0
    5.3630    0.1034    0.5853 H   0  0  0  0  0  0  0  0  0  0  0  0
    5.1479    0.1725    2.2955 H   0  0  0  0  0  0  0  0  0  0  0  0
    7.4343   -0.6889    1.5083 H   0  0  0  0  0  0  0  0  0  0  0  0
    6.5859   -1.5272    2.7933 H   0  0  0  0  0  0  0  0  0  0  0  0
    5.7251   -3.8511   -0.5372 H   0  0  0  0  0  0  0  0  0  0  0  0
    6.2835   -0.8966   -1.0391 H   0  0  0  0  0  0  0  0  0  0  0  0
    6.6291   -2.3011   -2.0668 H   0  0  0  0  0  0  0  0  0  0  0  0
    4.8794   -0.9436   -4.0443 H   0  0  0  0  0  0  0  0  0  0  0  0
    2.6564   -1.7353   -4.7509 H   0  0  0  0  0  0  0  0  0  0  0  0
    1.4234   -3.3976   -3.3940 H   0  0  0  0  0  0  0  0  0  0  0  0
    2.2813   -3.0730    0.9577 H   0  0  0  0  0  0  0  0  0  0  0  0
    1.4174   -4.4545   -0.5241 H   0  0  0  0  0  0  0  0  0  0  0  0
    3.0547   -5.0033   -0.9654 H   0  0  0  0  0  0  0  0  0  0  0  0
    5.2348   -5.4244    1.0808 H   0  0  0  0  0  0  0  0  0  0  0  0
    3.7422   -6.3200    0.8014 H   0  0  0  0  0  0  0  0  0  0  0  0
    4.4270   -6.2356    2.4138 H   0  0  0  0  0  0  0  0  0  0  0  0
    3.7355   -3.9992    3.8321 H   0  0  0  0  0  0  0  0  0  0  0  0
    5.1446   -3.7123    2.8874 H   0  0  0  0  0  0  0  0  0  0  0  0
    4.1147   -1.5497    3.5589 H   0  0  0  0  0  0  0  0  0  0  0  0
    2.5906   -2.0307    2.9211 H   0  0  0  0  0  0  0  0  0  0  0  0
    2.5857   -4.7771    2.1523 H   0  0  0  0  0  0  0  0  0  0  0  0
  1  2  1  0
  1 23  1  0
  1 24  1  0
  1 25  1  0
  3  2  1  6
  3 16  1  0
  3 22  1  0
  3  4  1  0
  4  5  1  0
  4 26  1  0
  4 27  1  0
  5  6  1  0
  5 28  1  0
  5 29  1  0
  6  7  2  0
  6  8  1  0
  8 16  1  0
  8  9  1  0
  8 30  1  6
  9 10  1  0
  9 31  1  0
  9 32  1  0
 10 15  2  0
 10 11  1  0
 11 12  2  0
 11 33  1  0
 12 13  1  0
 12 34  1  0
 13 14  2  0
 13 35  1  0
 14 18  1  0
 14 15  1  0
 16 15  1  6
 16 17  1  0
 17 18  1  0
 17 19  1  0
 17 36  1  1
 18 37  1  0
 18 38  1  0
 19 20  1  0
 19 21  1  0
 19 46  1  1
 20 39  1  0
 20 40  1  0
 20 41  1  0
 21 22  1  0
 21 42  1  0
 21 43  1  0
 22 44  1  0
 22 45  1  0
M  CHG  1  19   1
M  END
>  <i_m_ct_stereo_status>  (156) 
1

>  <s_m_source_file>  (156) 
/var/tmp/pbs.5076255.sched01/tmp5eg4wc32/41mqp692j8.sdf

>  <i_m_source_file_index>  (156) 
26

>  <i_lp_mmshare_version>  (156) 
48012

>  <i_f3d_flags>  (156) 
0

>  <s_epik_input>  (156) 
W0NIM11PW0NAQF0xKFtDQF0yMzQpW0NIMl1bQ0gyXUMoPU8pW0NAQEhdMltDSDJdYzVjM2MoW2NIXVtjSF1bY0hdNSlbQ0gyXVtDQEhdNE4oW0NIM10pW0NIMl1bQ0gyXTE=

>  <s_epik_cmdline>  (156) 
J2VwaWtfcHl0aG9uJywgJy1waHQnLCAnMi4wJywgJy1waCcsICc3LjAnLCAnLXRuJywgJzgnLCAnLW1hJywgJzIwMCcsICctaW1hZScsICc8aW5maWxlLm1hZT4nLCAnLW9tYWUnLCAnPG91dGZpbGUubWFlPic=

>  <r_lp_tautomer_probability>  (156) 
1

>  <r_epik_Ionization_Penalty>  (156) 
0.051519

>  <r_epik_Ionization_Penalty_Charging>  (156) 
0.051519

>  <r_epik_Ionization_Penalty_Neutral>  (156) 
8.25291e-12

>  <r_epik_State_Penalty>  (156) 
0.0441399

>  <r_epik_Charging_Adjusted_Penalty>  (156) 
0.095659

>  <i_epik_Tot_Q>  (156) 
1

>  <i_epik_Tot_abs_Q>  (156) 
1

>  <s_lp_Force_Field>  (156) 
OPLS3e

>  <r_lp_Energy>  (156) 
100.682

>  <b_lp_Chiralities_Consistent>  (156) 
1

>  <s_lp_Variant>  (156) 
46:0-1

>  <s_i_glide_gridfile>  (156) 
pfpi4k_grid

>  <i_i_glide_lignum>  (156) 
26

>  <i_i_glide_rotatable_bonds>  (156) 
1

>  <r_i_docking_score>  (156) 
-3.17419

>  <r_i_glide_ligand_efficiency>  (156) 
-0.144282

>  <r_i_glide_ligand_efficiency_sa>  (156) 
-0.404283

>  <r_i_glide_ligand_efficiency_ln>  (156) 
-0.775889

>  <r_i_glide_gscore>  (156) 
-3.17419

>  <r_i_glide_lipo>  (156) 
-0.693931

>  <r_i_glide_hbond>  (156) 
0

>  <r_i_glide_metal>  (156) 
-0

>  <r_i_glide_rewards>  (156) 
-1.47849

>  <r_i_glide_evdw>  (156) 
-17.0193

>  <r_i_glide_ecoul>  (156) 
-1.00538

>  <r_i_glide_erotb>  (156) 
0

>  <r_i_glide_esite>  (156) 
0

>  <r_i_glide_emodel>  (156) 
-20.8779

>  <r_i_glide_energy>  (156) 
-18.0247

>  <r_i_glide_einternal>  (156) 
0.0284384

>  <r_i_glide_intrahb_reward>  (156) 
-0

>  <i_i_glide_confnum>  (156) 
1

>  <i_i_glide_posenum>  (156) 
23

>  <r_i_glide_eff_state_penalty>  (156) 
0

>  <ligand_id>  (156) 
46

>  <original_smiles>  (156) 
COC12CCC(=O)C3Cc4cccc5c4C31C(C5)N(C)CC2

>  <smiles>  (156) 
[H]c1c([H])c2c3c(c1[H])C([H])([H])C1([H])C34C([H])(C(=O)C([H])([H])C([H])([H])C4(OC([H])([H])[H])C([H])([H])C([H])([H])[N+]1([H])C([H])([H])[H])C2([H])[H]

$$$$
46:0:2
     RDKit          3D

 46 50  0  0  1  0  0  0  0  0999 V2000
    4.0819    0.4938    1.1974 C   0  0  0  0  0  0  0  0  0  0  0  0
    3.7898   -0.7181    0.5201 O   0  0  0  0  0  0  0  0  0  0  0  0
    4.5750   -1.8757    0.8160 C   0  0  2  0  0  0  0  0  0  0  0  0
    6.0845   -1.5073    0.9328 C   0  0  0  0  0  0  0  0  0  0  0  0
    7.0202   -2.7162    1.0589 C   0  0  0  0  0  0  0  0  0  0  0  0
    6.5819   -3.9106    0.2356 C   0  0  0  0  0  0  0  0  0  0  0  0
    6.9931   -5.0373    0.4920 O   0  0  0  0  0  0  0  0  0  0  0  0
    5.5446   -3.6627   -0.8480 C   0  0  2  0  0  0  0  0  0  0  0  0
    6.1175   -2.7668   -1.9990 C   0  0  0  0  0  0  0  0  0  0  0  0
    4.9434   -1.9680   -2.5221 C   0  0  0  0  0  0  0  0  0  0  0  0
    4.5902   -1.5537   -3.8209 C   0  0  0  0  0  0  0  0  0  0  0  0
    3.2642   -1.5930   -4.2562 C   0  0  0  0  0  0  0  0  0  0  0  0
    2.2903   -2.2777   -3.5013 C   0  0  0  0  0  0  0  0  0  0  0  0
    2.6413   -2.6860   -2.1939 C   0  0  0  0  0  0  0  0  0  0  0  0
    3.8994   -2.3668   -1.7100 C   0  0  0  0  0  0  0  0  0  0  0  0
    4.2786   -2.8967   -0.3621 C   0  0  2  0  0  0  0  0  0  0  0  0
    2.9313   -3.5298   -0.0041 C   0  0  1  0  0  0  0  0  0  0  0  0
    2.0381   -3.6828   -1.2263 C   0  0  0  0  0  0  0  0  0  0  0  0
    2.9467   -4.4966    1.1159 N   0  0  1  0  0  0  0  0  0  0  0  0
    3.2194   -5.8947    0.7149 C   0  0  0  0  0  0  0  0  0  0  0  0
    3.8367   -4.0070    2.2108 C   0  0  0  0  0  0  0  0  0  0  0  0
    4.0268   -2.4597    2.1859 C   0  0  0  0  0  0  0  0  0  0  0  0
    3.3341    1.2400    0.9377 H   0  0  0  0  0  0  0  0  0  0  0  0
    5.0391    0.8845    0.8652 H   0  0  0  0  0  0  0  0  0  0  0  0
    4.0932    0.4060    2.2831 H   0  0  0  0  0  0  0  0  0  0  0  0
    6.3741   -0.9035    0.0776 H   0  0  0  0  0  0  0  0  0  0  0  0
    6.2618   -0.8697    1.7970 H   0  0  0  0  0  0  0  0  0  0  0  0
    8.0509   -2.4461    0.8349 H   0  0  0  0  0  0  0  0  0  0  0  0
    7.0031   -3.0733    2.0777 H   0  0  0  0  0  0  0  0  0  0  0  0
    5.2152   -4.6098   -1.2783 H   0  0  0  0  0  0  0  0  0  0  0  0
    6.8898   -2.0734   -1.6824 H   0  0  0  0  0  0  0  0  0  0  0  0
    6.5599   -3.3961   -2.7791 H   0  0  0  0  0  0  0  0  0  0  0  0
    5.2837   -1.2210   -4.5571 H   0  0  0  0  0  0  0  0  0  0  0  0
    3.0315   -1.1594   -5.2046 H   0  0  0  0  0  0  0  0  0  0  0  0
    1.3087   -2.4672   -3.9111 H   0  0  0  0  0  0  0  0  0  0  0  0
    2.3444   -2.7217    0.4177 H   0  0  0  0  0  0  0  0  0  0  0  0
    0.9797   -3.4840   -1.1041 H   0  0  0  0  0  0  0  0  0  0  0  0
    2.1194   -4.6570   -1.6080 H   0  0  0  0  0  0  0  0  0  0  0  0
    4.1975   -5.9998    0.2531 H   0  0  0  0  0  0  0  0  0  0  0  0
    2.4679   -6.2424    0.0148 H   0  0  0  0  0  0  0  0  0  0  0  0
    3.1832   -6.5471    1.5828 H   0  0  0  0  0  0  0  0  0  0  0  0
    3.4118   -4.3179    3.1623 H   0  0  0  0  0  0  0  0  0  0  0  0
    4.8009   -4.5020    2.1655 H   0  0  0  0  0  0  0  0  0  0  0  0
    4.6738   -2.1719    3.0074 H   0  0  0  0  0  0  0  0  0  0  0  0
    3.0610   -1.9824    2.4238 H   0  0  0  0  0  0  0  0  0  0  0  0
    2.0217   -4.4795    1.5098 H   0  0  0  0  0  0  0  0  0  0  0  0
  1  2  1  0
  1 23  1  0
  1 24  1  0
  1 25  1  0
  3  2  1  6
  3 16  1  0
  3 22  1  0
  3  4  1  0
  4  5  1  0
  4 26  1  0
  4 27  1  0
  5  6  1  0
  5 28  1  0
  5 29  1  0
  6  7  2  0
  6  8  1  0
  8 16  1  0
  8  9  1  0
  8 30  1  6
  9 10  1  0
  9 31  1  0
  9 32  1  0
 10 15  2  0
 10 11  1  0
 11 12  2  0
 11 33  1  0
 12 13  1  0
 12 34  1  0
 13 14  2  0
 13 35  1  0
 14 18  1  0
 14 15  1  0
 16 15  1  6
 16 17  1  0
 17 18  1  0
 17 19  1  0
 17 36  1  1
 18 37  1  0
 18 38  1  0
 19 20  1  0
 19 21  1  0
 19 46  1  1
 20 39  1  0
 20 40  1  0
 20 41  1  0
 21 22  1  0
 21 42  1  0
 21 43  1  0
 22 44  1  0
 22 45  1  0
M  CHG  1  19   1
M  END
>  <i_m_ct_stereo_status>  (157) 
1

>  <s_m_source_file>  (157) 
/var/tmp/pbs.5076255.sched01/tmp5eg4wc32/41mqp692j8.sdf

>  <i_m_source_file_index>  (157) 
26

>  <i_lp_mmshare_version>  (157) 
48012

>  <i_f3d_flags>  (157) 
0

>  <s_epik_input>  (157) 
W0NIM11PW0NAQF0xKFtDQF0yMzQpW0NIMl1bQ0gyXUMoPU8pW0NAQEhdMltDSDJdYzVjM2MoW2NIXVtjSF1bY0hdNSlbQ0gyXVtDQEhdNE4oW0NIM10pW0NIMl1bQ0gyXTE=

>  <s_epik_cmdline>  (157) 
J2VwaWtfcHl0aG9uJywgJy1waHQnLCAnMi4wJywgJy1waCcsICc3LjAnLCAnLXRuJywgJzgnLCAnLW1hJywgJzIwMCcsICctaW1hZScsICc8aW5maWxlLm1hZT4nLCAnLW9tYWUnLCAnPG91dGZpbGUubWFlPic=

>  <r_lp_tautomer_probability>  (157) 
1

>  <r_epik_Ionization_Penalty>  (157) 
0.051519

>  <r_epik_Ionization_Penalty_Charging>  (157) 
0.051519

>  <r_epik_Ionization_Penalty_Neutral>  (157) 
8.25291e-12

>  <r_epik_State_Penalty>  (157) 
0.0441399

>  <r_epik_Charging_Adjusted_Penalty>  (157) 
0.095659

>  <i_epik_Tot_Q>  (157) 
1

>  <i_epik_Tot_abs_Q>  (157) 
1

>  <s_lp_Force_Field>  (157) 
OPLS3e

>  <r_lp_Energy>  (157) 
100.682

>  <b_lp_Chiralities_Consistent>  (157) 
1

>  <s_lp_Variant>  (157) 
46:0-1

>  <s_i_glide_gridfile>  (157) 
pfpi4k_grid

>  <i_i_glide_lignum>  (157) 
26

>  <i_i_glide_rotatable_bonds>  (157) 
1

>  <r_i_docking_score>  (157) 
-2.96019

>  <r_i_glide_ligand_efficiency>  (157) 
-0.134554

>  <r_i_glide_ligand_efficiency_sa>  (157) 
-0.377026

>  <r_i_glide_ligand_efficiency_ln>  (157) 
-0.723579

>  <r_i_glide_gscore>  (157) 
-2.96019

>  <r_i_glide_lipo>  (157) 
-0.624349

>  <r_i_glide_hbond>  (157) 
0

>  <r_i_glide_metal>  (157) 
-0

>  <r_i_glide_rewards>  (157) 
-1.51735

>  <r_i_glide_evdw>  (157) 
-11.4109

>  <r_i_glide_ecoul>  (157) 
-1.58533

>  <r_i_glide_erotb>  (157) 
0

>  <r_i_glide_esite>  (157) 
-0.0101474

>  <r_i_glide_emodel>  (157) 
-14.9431

>  <r_i_glide_energy>  (157) 
-12.9962

>  <r_i_glide_einternal>  (157) 
0.755262

>  <r_i_glide_intrahb_reward>  (157) 
-0

>  <i_i_glide_confnum>  (157) 
1

>  <i_i_glide_posenum>  (157) 
16

>  <r_i_glide_eff_state_penalty>  (157) 
0

>  <ligand_id>  (157) 
46

>  <original_smiles>  (157) 
COC12CCC(=O)C3Cc4cccc5c4C31C(C5)N(C)CC2

>  <smiles>  (157) 
[H]c1c([H])c2c3c(c1[H])C([H])([H])C1([H])C34C([H])(C(=O)C([H])([H])C([H])([H])C4(OC([H])([H])[H])C([H])([H])C([H])([H])[N+]1([H])C([H])([H])[H])C2([H])[H]

$$$$
46:1:0
     RDKit          3D

 45 49  0  0  1  0  0  0  0  0999 V2000
    4.0785    0.2520    1.3764 C   0  0  0  0  0  0  0  0  0  0  0  0
    4.0307   -1.0664    0.8525 O   0  0  0  0  0  0  0  0  0  0  0  0
    5.2028   -1.8929    0.8768 C   0  0  2  0  0  0  0  0  0  0  0  0
    6.4302   -1.1387    0.2761 C   0  0  0  0  0  0  0  0  0  0  0  0
    7.7140   -1.9997    0.1282 C   0  0  0  0  0  0  0  0  0  0  0  0
    7.3944   -3.4691   -0.1079 C   0  0  0  0  0  0  0  0  0  0  0  0
    8.1848   -4.3515    0.2035 O   0  0  0  0  0  0  0  0  0  0  0  0
    6.0389   -3.7613   -0.7490 C   0  0  2  0  0  0  0  0  0  0  0  0
    5.9711   -3.0881   -2.1650 C   0  0  0  0  0  0  0  0  0  0  0  0
    4.5433   -2.6260   -2.3668 C   0  0  0  0  0  0  0  0  0  0  0  0
    3.7341   -2.5843   -3.5291 C   0  0  0  0  0  0  0  0  0  0  0  0
    2.3524   -2.8881   -3.4222 C   0  0  0  0  0  0  0  0  0  0  0  0
    1.8264   -3.4462   -2.2259 C   0  0  0  0  0  0  0  0  0  0  0  0
    2.6601   -3.5300   -1.0967 C   0  0  0  0  0  0  0  0  0  0  0  0
    3.9308   -2.9659   -1.1773 C   0  0  0  0  0  0  0  0  0  0  0  0
    4.8286   -3.1523    0.0168 C   0  0  2  0  0  0  0  0  0  0  0  0
    3.8509   -3.9400    0.9131 C   0  0  1  0  0  0  0  0  0  0  0  0
    2.7253   -4.5187    0.0583 C   0  0  0  0  0  0  0  0  0  0  0  0
    4.5063   -4.6213    2.0198 N   0  0  0  0  0  0  0  0  0  0  0  0
    3.6537   -5.6059    2.6810 C   0  0  0  0  0  0  0  0  0  0  0  0
    4.8077   -3.5474    2.9820 C   0  0  0  0  0  0  0  0  0  0  0  0
    5.5668   -2.3451    2.3442 C   0  0  0  0  0  0  0  0  0  0  0  0
    3.1233    0.7395    1.1906 H   0  0  0  0  0  0  0  0  0  0  0  0
    4.8186    0.8681    0.8755 H   0  0  0  0  0  0  0  0  0  0  0  0
    4.2661    0.2737    2.4468 H   0  0  0  0  0  0  0  0  0  0  0  0
    6.1379   -0.7077   -0.6806 H   0  0  0  0  0  0  0  0  0  0  0  0
    6.6711   -0.2886    0.9074 H   0  0  0  0  0  0  0  0  0  0  0  0
    8.3647   -1.6400   -0.6642 H   0  0  0  0  0  0  0  0  0  0  0  0
    8.3162   -1.9286    1.0235 H   0  0  0  0  0  0  0  0  0  0  0  0
    5.8620   -4.8318   -0.8486 H   0  0  0  0  0  0  0  0  0  0  0  0
    6.6131   -2.2143   -2.2775 H   0  0  0  0  0  0  0  0  0  0  0  0
    6.2644   -3.7840   -2.9546 H   0  0  0  0  0  0  0  0  0  0  0  0
    4.1747   -2.3786   -4.4911 H   0  0  0  0  0  0  0  0  0  0  0  0
    1.7231   -2.8334   -4.3001 H   0  0  0  0  0  0  0  0  0  0  0  0
    0.8273   -3.8323   -2.1860 H   0  0  0  0  0  0  0  0  0  0  0  0
    3.2264   -3.1941    1.4132 H   0  0  0  0  0  0  0  0  0  0  0  0
    1.7976   -4.5712    0.6109 H   0  0  0  0  0  0  0  0  0  0  0  0
    2.9685   -5.5125   -0.3168 H   0  0  0  0  0  0  0  0  0  0  0  0
    4.1772   -6.0426    3.5380 H   0  0  0  0  0  0  0  0  0  0  0  0
    3.4071   -6.4242    2.0001 H   0  0  0  0  0  0  0  0  0  0  0  0
    2.7198   -5.1707    3.0470 H   0  0  0  0  0  0  0  0  0  0  0  0
    3.8942   -3.1901    3.4572 H   0  0  0  0  0  0  0  0  0  0  0  0
    5.4239   -3.9644    3.7804 H   0  0  0  0  0  0  0  0  0  0  0  0
    6.6016   -2.6592    2.3587 H   0  0  0  0  0  0  0  0  0  0  0  0
    5.5171   -1.5006    3.0251 H   0  0  0  0  0  0  0  0  0  0  0  0
  1  2  1  0
  1 23  1  0
  1 24  1  0
  1 25  1  0
  3  2  1  1
  3 16  1  0
  3 22  1  0
  3  4  1  0
  4  5  1  0
  4 26  1  0
  4 27  1  0
  5  6  1  0
  5 28  1  0
  5 29  1  0
  6  7  2  0
  6  8  1  0
  8 16  1  0
  8  9  1  0
  8 30  1  6
  9 10  1  0
  9 31  1  0
  9 32  1  0
 10 15  2  0
 10 11  1  0
 11 12  2  0
 11 33  1  0
 12 13  1  0
 12 34  1  0
 13 14  2  0
 13 35  1  0
 14 18  1  0
 14 15  1  0
 16 15  1  6
 16 17  1  0
 17 18  1  0
 17 19  1  0
 17 36  1  1
 18 37  1  0
 18 38  1  0
 19 20  1  0
 19 21  1  0
 20 39  1  0
 20 40  1  0
 20 41  1  0
 21 22  1  0
 21 42  1  0
 21 43  1  0
 22 44  1  0
 22 45  1  0
M  END
>  <i_m_ct_stereo_status>  (158) 
1

>  <s_m_source_file>  (158) 
/var/tmp/pbs.5076255.sched01/tmp5eg4wc32/41mqp692j8.sdf

>  <i_m_source_file_index>  (158) 
27

>  <i_lp_mmshare_version>  (158) 
48012

>  <i_f3d_flags>  (158) 
0

>  <s_epik_input>  (158) 
W0NIM11PW0NAQF0xKFtDQF0yMzQpW0NIMl1bQ0gyXUMoPU8pW0NAQEhdMltDSDJdYzVjM2MoW2NIXVtjSF1bY0hdNSlbQ0gyXVtDQEhdNE4oW0NIM10pW0NIMl1bQ0gyXTE=

>  <s_epik_cmdline>  (158) 
J2VwaWtfcHl0aG9uJywgJy1waHQnLCAnMi4wJywgJy1waCcsICc3LjAnLCAnLXRuJywgJzgnLCAnLW1hJywgJzIwMCcsICctaW1hZScsICc8aW5maWxlLm1hZT4nLCAnLW9tYWUnLCAnPG91dGZpbGUubWFlPic=

>  <r_lp_tautomer_probability>  (158) 
1

>  <r_epik_Ionization_Penalty>  (158) 
1.47265

>  <r_epik_Ionization_Penalty_Charging>  (158) 
0

>  <r_epik_Ionization_Penalty_Neutral>  (158) 
1.47265

>  <r_epik_State_Penalty>  (158) 
1.5606

>  <r_epik_Charging_Adjusted_Penalty>  (158) 
1.5606

>  <i_epik_Tot_Q>  (158) 
0

>  <i_epik_Tot_abs_Q>  (158) 
0

>  <s_lp_Force_Field>  (158) 
OPLS3e

>  <r_lp_Energy>  (158) 
85.4559

>  <b_lp_Chiralities_Consistent>  (158) 
1

>  <s_lp_Variant>  (158) 
46:0-2

>  <s_i_glide_gridfile>  (158) 
pfpi4k_grid

>  <i_i_glide_lignum>  (158) 
27

>  <i_i_glide_rotatable_bonds>  (158) 
1

>  <r_i_docking_score>  (158) 
-3.42605

>  <r_i_glide_ligand_efficiency>  (158) 
-0.15573

>  <r_i_glide_ligand_efficiency_sa>  (158) 
-0.43636

>  <r_i_glide_ligand_efficiency_ln>  (158) 
-0.837452

>  <r_i_glide_gscore>  (158) 
-3.42605

>  <r_i_glide_lipo>  (158) 
-1.00642

>  <r_i_glide_hbond>  (158) 
0

>  <r_i_glide_metal>  (158) 
-0

>  <r_i_glide_rewards>  (158) 
-1.61025

>  <r_i_glide_evdw>  (158) 
-21.9104

>  <r_i_glide_ecoul>  (158) 
1.90762

>  <r_i_glide_erotb>  (158) 
0

>  <r_i_glide_esite>  (158) 
0

>  <r_i_glide_emodel>  (158) 
-22.8831

>  <r_i_glide_energy>  (158) 
-20.0027

>  <r_i_glide_einternal>  (158) 
0.352069

>  <r_i_glide_intrahb_reward>  (158) 
-0

>  <i_i_glide_confnum>  (158) 
2

>  <i_i_glide_posenum>  (158) 
28

>  <r_i_glide_eff_state_penalty>  (158) 
0

>  <ligand_id>  (158) 
46

>  <original_smiles>  (158) 
COC12CCC(=O)C3Cc4cccc5c4C31C(C5)N(C)CC2

>  <smiles>  (158) 
[H]c1c([H])c2c3c(c1[H])C([H])([H])C1([H])N(C([H])([H])[H])C([H])([H])C([H])([H])C4(OC([H])([H])[H])C([H])([H])C([H])([H])C(=O)C([H])(C2([H])[H])C314

$$$$
46:1:1
     RDKit          3D

 45 49  0  0  1  0  0  0  0  0999 V2000
    5.9802   -5.7891    0.8020 C   0  0  0  0  0  0  0  0  0  0  0  0
    5.8068   -4.8364   -0.2641 O   0  0  0  0  0  0  0  0  0  0  0  0
    5.5438   -3.4639    0.0918 C   0  0  2  0  0  0  0  0  0  0  0  0
    6.4074   -3.0352    1.3266 C   0  0  0  0  0  0  0  0  0  0  0  0
    6.2220   -1.5717    1.7685 C   0  0  0  0  0  0  0  0  0  0  0  0
    4.8210   -1.0523    1.4537 C   0  0  0  0  0  0  0  0  0  0  0  0
    4.6155    0.1454    1.2849 O   0  0  0  0  0  0  0  0  0  0  0  0
    3.7105   -2.0958    1.3384 C   0  0  2  0  0  0  0  0  0  0  0  0
    3.5346   -2.8668    2.6906 C   0  0  0  0  0  0  0  0  0  0  0  0
    3.1210   -4.2798    2.3281 C   0  0  0  0  0  0  0  0  0  0  0  0
    2.2926   -5.2261    2.9721 C   0  0  0  0  0  0  0  0  0  0  0  0
    1.5217   -6.1194    2.1764 C   0  0  0  0  0  0  0  0  0  0  0  0
    1.4176   -5.9220    0.7698 C   0  0  0  0  0  0  0  0  0  0  0  0
    2.2247   -4.9344    0.1588 C   0  0  0  0  0  0  0  0  0  0  0  0
    3.1659   -4.2925    0.9433 C   0  0  0  0  0  0  0  0  0  0  0  0
    3.9974   -3.2239    0.2976 C   0  0  2  0  0  0  0  0  0  0  0  0
    3.3955   -3.3197   -1.1237 C   0  0  1  0  0  0  0  0  0  0  0  0
    2.0321   -4.0188   -1.0545 C   0  0  0  0  0  0  0  0  0  0  0  0
    3.6984   -2.1620   -1.9520 N   0  0  0  0  0  0  0  0  0  0  0  0
    2.8840   -2.0953   -3.1600 C   0  0  0  0  0  0  0  0  0  0  0  0
    5.1034   -2.3298   -2.3376 C   0  0  0  0  0  0  0  0  0  0  0  0
    6.0497   -2.5784   -1.1213 C   0  0  0  0  0  0  0  0  0  0  0  0
    5.9025   -6.8187    0.4667 H   0  0  0  0  0  0  0  0  0  0  0  0
    5.2412   -5.6971    1.5952 H   0  0  0  0  0  0  0  0  0  0  0  0
    6.9640   -5.6762    1.2563 H   0  0  0  0  0  0  0  0  0  0  0  0
    6.1825   -3.6518    2.1949 H   0  0  0  0  0  0  0  0  0  0  0  0
    7.4562   -3.2313    1.1027 H   0  0  0  0  0  0  0  0  0  0  0  0
    6.3932   -1.4957    2.8385 H   0  0  0  0  0  0  0  0  0  0  0  0
    6.9662   -0.9405    1.2883 H   0  0  0  0  0  0  0  0  0  0  0  0
    2.7686   -1.6092    1.0803 H   0  0  0  0  0  0  0  0  0  0  0  0
    4.4395   -2.9207    3.3056 H   0  0  0  0  0  0  0  0  0  0  0  0
    2.7705   -2.3958    3.3171 H   0  0  0  0  0  0  0  0  0  0  0  0
    2.2042   -5.2286    4.0512 H   0  0  0  0  0  0  0  0  0  0  0  0
    0.8973   -6.8492    2.6682 H   0  0  0  0  0  0  0  0  0  0  0  0
    0.6788   -6.4747    0.2052 H   0  0  0  0  0  0  0  0  0  0  0  0
    3.9339   -4.1319   -1.6183 H   0  0  0  0  0  0  0  0  0  0  0  0
    1.7324   -4.5050   -1.9758 H   0  0  0  0  0  0  0  0  0  0  0  0
    1.2580   -3.2849   -0.8537 H   0  0  0  0  0  0  0  0  0  0  0  0
    3.1659   -1.2315   -3.7708 H   0  0  0  0  0  0  0  0  0  0  0  0
    1.8390   -1.9773   -2.8863 H   0  0  0  0  0  0  0  0  0  0  0  0
    2.9739   -2.9912   -3.7758 H   0  0  0  0  0  0  0  0  0  0  0  0
    5.2113   -3.1375   -3.0637 H   0  0  0  0  0  0  0  0  0  0  0  0
    5.4215   -1.4157   -2.8425 H   0  0  0  0  0  0  0  0  0  0  0  0
    6.2870   -1.5758   -0.7756 H   0  0  0  0  0  0  0  0  0  0  0  0
    6.9864   -2.9847   -1.4941 H   0  0  0  0  0  0  0  0  0  0  0  0
  1  2  1  0
  1 23  1  0
  1 24  1  0
  1 25  1  0
  3  2  1  6
  3 16  1  0
  3 22  1  0
  3  4  1  0
  4  5  1  0
  4 26  1  0
  4 27  1  0
  5  6  1  0
  5 28  1  0
  5 29  1  0
  6  7  2  0
  6  8  1  0
  8 16  1  0
  8  9  1  0
  8 30  1  6
  9 10  1  0
  9 31  1  0
  9 32  1  0
 10 15  2  0
 10 11  1  0
 11 12  2  0
 11 33  1  0
 12 13  1  0
 12 34  1  0
 13 14  2  0
 13 35  1  0
 14 18  1  0
 14 15  1  0
 16 15  1  1
 16 17  1  0
 17 18  1  0
 17 19  1  0
 17 36  1  6
 18 37  1  0
 18 38  1  0
 19 20  1  0
 19 21  1  0
 20 39  1  0
 20 40  1  0
 20 41  1  0
 21 22  1  0
 21 42  1  0
 21 43  1  0
 22 44  1  0
 22 45  1  0
M  END
>  <i_m_ct_stereo_status>  (159) 
1

>  <s_m_source_file>  (159) 
/var/tmp/pbs.5076255.sched01/tmp5eg4wc32/41mqp692j8.sdf

>  <i_m_source_file_index>  (159) 
27

>  <i_lp_mmshare_version>  (159) 
48012

>  <i_f3d_flags>  (159) 
0

>  <s_epik_input>  (159) 
W0NIM11PW0NAQF0xKFtDQF0yMzQpW0NIMl1bQ0gyXUMoPU8pW0NAQEhdMltDSDJdYzVjM2MoW2NIXVtjSF1bY0hdNSlbQ0gyXVtDQEhdNE4oW0NIM10pW0NIMl1bQ0gyXTE=

>  <s_epik_cmdline>  (159) 
J2VwaWtfcHl0aG9uJywgJy1waHQnLCAnMi4wJywgJy1waCcsICc3LjAnLCAnLXRuJywgJzgnLCAnLW1hJywgJzIwMCcsICctaW1hZScsICc8aW5maWxlLm1hZT4nLCAnLW9tYWUnLCAnPG91dGZpbGUubWFlPic=

>  <r_lp_tautomer_probability>  (159) 
1

>  <r_epik_Ionization_Penalty>  (159) 
1.47265

>  <r_epik_Ionization_Penalty_Charging>  (159) 
0

>  <r_epik_Ionization_Penalty_Neutral>  (159) 
1.47265

>  <r_epik_State_Penalty>  (159) 
1.5606

>  <r_epik_Charging_Adjusted_Penalty>  (159) 
1.5606

>  <i_epik_Tot_Q>  (159) 
0

>  <i_epik_Tot_abs_Q>  (159) 
0

>  <s_lp_Force_Field>  (159) 
OPLS3e

>  <r_lp_Energy>  (159) 
85.4559

>  <b_lp_Chiralities_Consistent>  (159) 
1

>  <s_lp_Variant>  (159) 
46:0-2

>  <s_i_glide_gridfile>  (159) 
pfpi4k_grid

>  <i_i_glide_lignum>  (159) 
27

>  <i_i_glide_rotatable_bonds>  (159) 
1

>  <r_i_docking_score>  (159) 
-3.01726

>  <r_i_glide_ligand_efficiency>  (159) 
-0.137148

>  <r_i_glide_ligand_efficiency_sa>  (159) 
-0.384295

>  <r_i_glide_ligand_efficiency_ln>  (159) 
-0.737529

>  <r_i_glide_gscore>  (159) 
-3.01726

>  <r_i_glide_lipo>  (159) 
-0.595895

>  <r_i_glide_hbond>  (159) 
-0.0732812

>  <r_i_glide_metal>  (159) 
-0

>  <r_i_glide_rewards>  (159) 
-1.50183

>  <r_i_glide_evdw>  (159) 
-18.0606

>  <r_i_glide_ecoul>  (159) 
0.378458

>  <r_i_glide_erotb>  (159) 
0

>  <r_i_glide_esite>  (159) 
0

>  <r_i_glide_emodel>  (159) 
-18.2574

>  <r_i_glide_energy>  (159) 
-17.6821

>  <r_i_glide_einternal>  (159) 
3.4816

>  <r_i_glide_intrahb_reward>  (159) 
-0

>  <i_i_glide_confnum>  (159) 
2

>  <i_i_glide_posenum>  (159) 
19

>  <r_i_glide_eff_state_penalty>  (159) 
0

>  <ligand_id>  (159) 
46

>  <original_smiles>  (159) 
COC12CCC(=O)C3Cc4cccc5c4C31C(C5)N(C)CC2

>  <smiles>  (159) 
[H]c1c([H])c2c3c(c1[H])C([H])([H])C1([H])N(C([H])([H])[H])C([H])([H])C([H])([H])C4(OC([H])([H])[H])C([H])([H])C([H])([H])C(=O)C([H])(C2([H])[H])C314

$$$$
46:1:2
     RDKit          3D

 45 49  0  0  1  0  0  0  0  0999 V2000
    7.2529   -3.5587    0.4861 C   0  0  0  0  0  0  0  0  0  0  0  0
    5.8566   -3.4447    0.7065 O   0  0  0  0  0  0  0  0  0  0  0  0
    5.2503   -2.1535    0.8951 C   0  0  2  0  0  0  0  0  0  0  0  0
    5.5564   -1.6528    2.3300 C   0  0  0  0  0  0  0  0  0  0  0  0
    4.8426   -0.3341    2.7137 C   0  0  0  0  0  0  0  0  0  0  0  0
    3.4927   -0.1799    2.0036 C   0  0  0  0  0  0  0  0  0  0  0  0
    3.0030    0.9159    1.7765 O   0  0  0  0  0  0  0  0  0  0  0  0
    2.8170   -1.4826    1.5836 C   0  0  2  0  0  0  0  0  0  0  0  0
    2.5167   -2.3595    2.8500 C   0  0  0  0  0  0  0  0  0  0  0  0
    2.7014   -3.8093    2.4365 C   0  0  0  0  0  0  0  0  0  0  0  0
    2.0082   -4.9780    2.8277 C   0  0  0  0  0  0  0  0  0  0  0  0
    1.7568   -5.9955    1.8585 C   0  0  0  0  0  0  0  0  0  0  0  0
    1.9631   -5.7238    0.4839 C   0  0  0  0  0  0  0  0  0  0  0  0
    2.6219   -4.5346    0.1102 C   0  0  0  0  0  0  0  0  0  0  0  0
    3.1042   -3.7079    1.1200 C   0  0  0  0  0  0  0  0  0  0  0  0
    3.7076   -2.3946    0.6900 C   0  0  2  0  0  0  0  0  0  0  0  0
    3.5720   -2.5704   -0.8359 C   0  0  1  0  0  0  0  0  0  0  0  0
    2.5377   -3.6603   -1.1267 C   0  0  0  0  0  0  0  0  0  0  0  0
    3.7432   -1.3343   -1.5841 N   0  0  0  0  0  0  0  0  0  0  0  0
    3.2888   -1.4233   -2.9680 C   0  0  0  0  0  0  0  0  0  0  0  0
    5.1798   -1.0521   -1.5615 C   0  0  0  0  0  0  0  0  0  0  0  0
    5.7662   -1.0567   -0.1242 C   0  0  0  0  0  0  0  0  0  0  0  0
    7.5144   -4.6156    0.4490 H   0  0  0  0  0  0  0  0  0  0  0  0
    7.8419   -3.1008    1.2787 H   0  0  0  0  0  0  0  0  0  0  0  0
    7.5495   -3.1414   -0.4740 H   0  0  0  0  0  0  0  0  0  0  0  0
    5.3334   -2.4370    3.0554 H   0  0  0  0  0  0  0  0  0  0  0  0
    6.6182   -1.4727    2.4209 H   0  0  0  0  0  0  0  0  0  0  0  0
    4.7030   -0.2660    3.7890 H   0  0  0  0  0  0  0  0  0  0  0  0
    5.4729    0.5109    2.4450 H   0  0  0  0  0  0  0  0  0  0  0  0
    1.8816   -1.2697    1.0639 H   0  0  0  0  0  0  0  0  0  0  0  0
    3.1807   -2.1687    3.6927 H   0  0  0  0  0  0  0  0  0  0  0  0
    1.5015   -2.1908    3.2052 H   0  0  0  0  0  0  0  0  0  0  0  0
    1.6087   -5.0734    3.8282 H   0  0  0  0  0  0  0  0  0  0  0  0
    1.2479   -6.9038    2.1551 H   0  0  0  0  0  0  0  0  0  0  0  0
    1.5686   -6.3847   -0.2721 H   0  0  0  0  0  0  0  0  0  0  0  0
    4.4396   -3.1572   -1.1510 H   0  0  0  0  0  0  0  0  0  0  0  0
    2.7921   -4.2115   -2.0214 H   0  0  0  0  0  0  0  0  0  0  0  0
    1.5303   -3.2558   -1.2301 H   0  0  0  0  0  0  0  0  0  0  0  0
    3.4647   -0.4726   -3.4767 H   0  0  0  0  0  0  0  0  0  0  0  0
    2.2156   -1.6213   -3.0028 H   0  0  0  0  0  0  0  0  0  0  0  0
    3.8108   -2.2076   -3.5174 H   0  0  0  0  0  0  0  0  0  0  0  0
    5.7157   -1.7640   -2.1923 H   0  0  0  0  0  0  0  0  0  0  0  0
    5.3334   -0.0692   -2.0059 H   0  0  0  0  0  0  0  0  0  0  0  0
    5.5668   -0.0624    0.2664 H   0  0  0  0  0  0  0  0  0  0  0  0
    6.8505   -1.0815   -0.1827 H   0  0  0  0  0  0  0  0  0  0  0  0
  1  2  1  0
  1 23  1  0
  1 24  1  0
  1 25  1  0
  3  2  1  6
  3 16  1  0
  3 22  1  0
  3  4  1  0
  4  5  1  0
  4 26  1  0
  4 27  1  0
  5  6  1  0
  5 28  1  0
  5 29  1  0
  6  7  2  0
  6  8  1  0
  8 16  1  0
  8  9  1  0
  8 30  1  6
  9 10  1  0
  9 31  1  0
  9 32  1  0
 10 15  2  0
 10 11  1  0
 11 12  2  0
 11 33  1  0
 12 13  1  0
 12 34  1  0
 13 14  2  0
 13 35  1  0
 14 18  1  0
 14 15  1  0
 16 15  1  1
 16 17  1  0
 17 18  1  0
 17 19  1  0
 17 36  1  6
 18 37  1  0
 18 38  1  0
 19 20  1  0
 19 21  1  0
 20 39  1  0
 20 40  1  0
 20 41  1  0
 21 22  1  0
 21 42  1  0
 21 43  1  0
 22 44  1  0
 22 45  1  0
M  END
>  <i_m_ct_stereo_status>  (160) 
1

>  <s_m_source_file>  (160) 
/var/tmp/pbs.5076255.sched01/tmp5eg4wc32/41mqp692j8.sdf

>  <i_m_source_file_index>  (160) 
27

>  <i_lp_mmshare_version>  (160) 
48012

>  <i_f3d_flags>  (160) 
0

>  <s_epik_input>  (160) 
W0NIM11PW0NAQF0xKFtDQF0yMzQpW0NIMl1bQ0gyXUMoPU8pW0NAQEhdMltDSDJdYzVjM2MoW2NIXVtjSF1bY0hdNSlbQ0gyXVtDQEhdNE4oW0NIM10pW0NIMl1bQ0gyXTE=

>  <s_epik_cmdline>  (160) 
J2VwaWtfcHl0aG9uJywgJy1waHQnLCAnMi4wJywgJy1waCcsICc3LjAnLCAnLXRuJywgJzgnLCAnLW1hJywgJzIwMCcsICctaW1hZScsICc8aW5maWxlLm1hZT4nLCAnLW9tYWUnLCAnPG91dGZpbGUubWFlPic=

>  <r_lp_tautomer_probability>  (160) 
1

>  <r_epik_Ionization_Penalty>  (160) 
1.47265

>  <r_epik_Ionization_Penalty_Charging>  (160) 
0

>  <r_epik_Ionization_Penalty_Neutral>  (160) 
1.47265

>  <r_epik_State_Penalty>  (160) 
1.5606

>  <r_epik_Charging_Adjusted_Penalty>  (160) 
1.5606

>  <i_epik_Tot_Q>  (160) 
0

>  <i_epik_Tot_abs_Q>  (160) 
0

>  <s_lp_Force_Field>  (160) 
OPLS3e

>  <r_lp_Energy>  (160) 
85.4559

>  <b_lp_Chiralities_Consistent>  (160) 
1

>  <s_lp_Variant>  (160) 
46:0-2

>  <s_i_glide_gridfile>  (160) 
pfpi4k_grid

>  <i_i_glide_lignum>  (160) 
27

>  <i_i_glide_rotatable_bonds>  (160) 
1

>  <r_i_docking_score>  (160) 
-2.60226

>  <r_i_glide_ligand_efficiency>  (160) 
-0.118285

>  <r_i_glide_ligand_efficiency_sa>  (160) 
-0.331438

>  <r_i_glide_ligand_efficiency_ln>  (160) 
-0.636087

>  <r_i_glide_gscore>  (160) 
-2.60226

>  <r_i_glide_lipo>  (160) 
-0.408897

>  <r_i_glide_hbond>  (160) 
0

>  <r_i_glide_metal>  (160) 
-0

>  <r_i_glide_rewards>  (160) 
-1.38868

>  <r_i_glide_evdw>  (160) 
-19.5355

>  <r_i_glide_ecoul>  (160) 
1.14728

>  <r_i_glide_erotb>  (160) 
0

>  <r_i_glide_esite>  (160) 
0

>  <r_i_glide_emodel>  (160) 
-20.4779

>  <r_i_glide_energy>  (160) 
-18.3883

>  <r_i_glide_einternal>  (160) 
0.376659

>  <r_i_glide_intrahb_reward>  (160) 
-0

>  <i_i_glide_confnum>  (160) 
1

>  <i_i_glide_posenum>  (160) 
1

>  <r_i_glide_eff_state_penalty>  (160) 
0

>  <ligand_id>  (160) 
46

>  <original_smiles>  (160) 
COC12CCC(=O)C3Cc4cccc5c4C31C(C5)N(C)CC2

>  <smiles>  (160) 
[H]c1c([H])c2c3c(c1[H])C([H])([H])C1([H])N(C([H])([H])[H])C([H])([H])C([H])([H])C4(OC([H])([H])[H])C([H])([H])C([H])([H])C(=O)C([H])(C2([H])[H])C314

$$$$
47:0:0
     RDKit          3D

 72 77  0  0  1  0  0  0  0  0999 V2000
    5.0935   -8.6171    4.5810 C   0  0  0  0  0  0  0  0  0  0  0  0
    3.6194   -8.6929    4.2114 C   0  0  0  0  0  0  0  0  0  0  0  0
    2.7037   -7.7710    4.5593 C   0  0  0  0  0  0  0  0  0  0  0  0
    3.0634   -6.3156    4.3316 C   0  0  0  0  0  0  0  0  0  0  0  0
    2.8574   -5.8753    2.8443 C   0  0  2  0  0  0  0  0  0  0  0  0
    3.0450   -7.0004    1.7470 C   0  0  2  0  0  0  0  0  0  0  0  0
    2.5556   -8.4826    1.9278 C   0  0  1  0  0  0  0  0  0  0  0  0
    3.3549   -9.3972    2.9023 C   0  0  0  0  0  0  0  0  0  0  0  0
    1.0229   -8.6296    2.0994 C   0  0  0  0  0  0  0  0  0  0  0  0
    0.3272   -8.0966    3.3787 C   0  0  0  0  0  0  0  0  0  0  0  0
   -0.2853   -6.6926    3.1819 C   0  0  0  0  0  0  0  0  0  0  0  0
   -0.8736   -9.0280    3.6436 C   0  0  0  0  0  0  0  0  0  0  0  0
    1.2232   -8.1441    4.6437 C   0  0  0  0  0  0  0  0  0  0  0  0
    4.4774   -6.8473    1.2733 C   0  0  2  0  0  0  0  0  0  0  0  0
    5.5025   -6.6190    2.2510 O   0  0  0  0  0  0  0  0  0  0  0  0
    4.9291   -5.4722    1.6105 C   0  0  1  0  0  0  0  0  0  0  0  0
    5.8874   -4.6213    0.7984 C   0  0  1  0  0  0  0  0  0  0  0  0
    5.4961   -4.5995   -0.5571 O   0  0  0  0  0  0  0  0  0  0  0  0
    6.1170   -3.1952    1.3591 C   0  0  0  0  0  0  0  0  0  0  0  0
    4.9534   -2.5059    2.1461 C   0  0  1  0  0  0  0  0  0  0  0  0
    4.0391   -1.5131    1.3093 C   0  0  0  0  0  0  0  0  0  0  0  0
    4.8966   -0.2918    0.9122 C   0  0  0  0  0  0  0  0  0  0  0  0
    3.4609   -2.1021    0.0039 C   0  0  0  0  0  0  0  0  0  0  0  0
    2.8863   -0.9717    2.2044 C   0  0  1  0  0  0  0  0  0  0  0  0
    1.9738   -0.1533    1.4959 O   0  0  0  0  0  0  0  0  0  0  0  0
    2.1214   -2.0739    2.9316 C   0  0  0  0  0  0  0  0  0  0  0  0
    3.0722   -2.8215    3.8606 C   0  0  0  0  0  0  0  0  0  0  0  0
    4.2583   -3.5088    3.1396 C   0  0  2  0  0  0  0  0  0  0  0  0
    5.2797   -3.8833    4.2489 C   0  0  0  0  0  0  0  0  0  0  0  0
    3.8048   -4.7498    2.3089 C   0  0  2  0  0  0  0  0  0  0  0  0
    5.7520   -8.4908    3.7249 H   0  0  0  0  0  0  0  0  0  0  0  0
    5.3654   -9.5519    5.0672 H   0  0  0  0  0  0  0  0  0  0  0  0
    5.2954   -7.8259    5.3034 H   0  0  0  0  0  0  0  0  0  0  0  0
    2.5022   -5.6850    5.0165 H   0  0  0  0  0  0  0  0  0  0  0  0
    4.1106   -6.2010    4.5759 H   0  0  0  0  0  0  0  0  0  0  0  0
    1.8564   -5.4550    2.7676 H   0  0  0  0  0  0  0  0  0  0  0  0
    2.4588   -6.6438    0.8971 H   0  0  0  0  0  0  0  0  0  0  0  0
    2.7282   -8.9422    0.9512 H   0  0  0  0  0  0  0  0  0  0  0  0
    4.3035   -9.6427    2.4266 H   0  0  0  0  0  0  0  0  0  0  0  0
    2.8525  -10.3456    3.0727 H   0  0  0  0  0  0  0  0  0  0  0  0
    0.5238   -8.2007    1.2339 H   0  0  0  0  0  0  0  0  0  0  0  0
    0.8238   -9.7001    2.0226 H   0  0  0  0  0  0  0  0  0  0  0  0
    0.0537   -5.9830    3.9366 H   0  0  0  0  0  0  0  0  0  0  0  0
   -1.3735   -6.7092    3.2646 H   0  0  0  0  0  0  0  0  0  0  0  0
   -0.0641   -6.2834    2.1989 H   0  0  0  0  0  0  0  0  0  0  0  0
   -1.4298   -8.7238    4.5352 H   0  0  0  0  0  0  0  0  0  0  0  0
   -0.5508  -10.0594    3.8069 H   0  0  0  0  0  0  0  0  0  0  0  0
   -1.5749   -9.0449    2.8048 H   0  0  0  0  0  0  0  0  0  0  0  0
    1.2205   -9.1674    5.0173 H   0  0  0  0  0  0  0  0  0  0  0  0
    0.7700   -7.5626    5.4462 H   0  0  0  0  0  0  0  0  0  0  0  0
    4.7774   -7.2980    0.3278 H   0  0  0  0  0  0  0  0  0  0  0  0
    6.8534   -5.1298    0.8147 H   0  0  0  0  0  0  0  0  0  0  0  0
    4.5921   -4.3443   -0.6251 H   0  0  0  0  0  0  0  0  0  0  0  0
    6.9519   -3.2748    2.0530 H   0  0  0  0  0  0  0  0  0  0  0  0
    6.4958   -2.5586    0.5647 H   0  0  0  0  0  0  0  0  0  0  0  0
    5.4810   -1.8092    2.8028 H   0  0  0  0  0  0  0  0  0  0  0  0
    4.2921    0.4760    0.4252 H   0  0  0  0  0  0  0  0  0  0  0  0
    5.7069   -0.5431    0.2287 H   0  0  0  0  0  0  0  0  0  0  0  0
    5.3399    0.1634    1.7973 H   0  0  0  0  0  0  0  0  0  0  0  0
    3.0170   -1.3208   -0.6152 H   0  0  0  0  0  0  0  0  0  0  0  0
    2.6681   -2.8283    0.1704 H   0  0  0  0  0  0  0  0  0  0  0  0
    4.2331   -2.5477   -0.6131 H   0  0  0  0  0  0  0  0  0  0  0  0
    3.3172   -0.3312    2.9728 H   0  0  0  0  0  0  0  0  0  0  0  0
    1.6276   -0.6195    0.7345 H   0  0  0  0  0  0  0  0  0  0  0  0
    1.3260   -1.6362    3.5315 H   0  0  0  0  0  0  0  0  0  0  0  0
    1.6380   -2.7586    2.2406 H   0  0  0  0  0  0  0  0  0  0  0  0
    3.4705   -2.1058    4.5850 H   0  0  0  0  0  0  0  0  0  0  0  0
    2.5123   -3.5432    4.4501 H   0  0  0  0  0  0  0  0  0  0  0  0
    4.8012   -4.3117    5.1268 H   0  0  0  0  0  0  0  0  0  0  0  0
    5.8032   -2.9990    4.6169 H   0  0  0  0  0  0  0  0  0  0  0  0
    6.0412   -4.5830    3.9054 H   0  0  0  0  0  0  0  0  0  0  0  0
    3.2287   -4.3392    1.4886 H   0  0  0  0  0  0  0  0  0  0  0  0
  1  2  1  0
  1 31  1  0
  1 32  1  0
  1 33  1  0
  2  8  1  0
  2  3  2  0
  3 13  1  0
  3  4  1  0
  4  5  1  0
  4 34  1  0
  4 35  1  0
  5 30  1  0
  5  6  1  0
  5 36  1  1
  6  7  1  0
  6 14  1  0
  6 37  1  6
  7  8  1  0
  7  9  1  0
  7 38  1  6
  8 39  1  0
  8 40  1  0
  9 10  1  0
  9 41  1  0
  9 42  1  0
 10 11  1  0
 10 12  1  0
 10 13  1  0
 11 43  1  0
 11 44  1  0
 11 45  1  0
 12 46  1  0
 12 47  1  0
 12 48  1  0
 13 49  1  0
 13 50  1  0
 14 16  1  0
 14 15  1  0
 14 51  1  6
 16 15  1  1
 16 30  1  0
 16 17  1  0
 17 18  1  0
 17 19  1  0
 17 52  1  6
 18 53  1  0
 19 20  1  0
 19 54  1  0
 19 55  1  0
 20 28  1  0
 20 21  1  0
 20 56  1  1
 21 22  1  0
 21 23  1  0
 21 24  1  0
 22 57  1  0
 22 58  1  0
 22 59  1  0
 23 60  1  0
 23 61  1  0
 23 62  1  0
 24 25  1  0
 24 26  1  0
 24 63  1  1
 25 64  1  0
 26 27  1  0
 26 65  1  0
 26 66  1  0
 27 28  1  0
 27 67  1  0
 27 68  1  0
 28 29  1  1
 28 30  1  0
 29 69  1  0
 29 70  1  0
 29 71  1  0
 30 72  1  6
M  END
>  <i_m_ct_stereo_status>  (161) 
1

>  <s_m_source_file>  (161) 
/var/tmp/pbs.5076255.sched01/tmp5eg4wc32/41mqp692j8.sdf

>  <i_m_source_file_index>  (161) 
28

>  <i_lp_mmshare_version>  (161) 
48012

>  <i_f3d_flags>  (161) 
0

>  <s_epik_input>  (161) 
W0NIM11DKFtDSDNdKShbQ0gyXTEpW0NIMl1bQ0BASF0yW0NIMl1DKFtDSDNdKT1DMVtDSDJdW0NASF0oW0NASF0yW0NASF0oTzMpW0NAQF0zNDUpW0NASF01W0NAQF02KFtDSDNdKVtDQEBIXShbQ0gyXVtDQEBIXTRbT0hdKUMoW0NIM10pKFtDSDNdKVtDQEBIXShbT0hdKVtDSDJdW0NIMl02

>  <s_epik_cmdline>  (161) 
J2VwaWtfcHl0aG9uJywgJy1waHQnLCAnMi4wJywgJy1waCcsICc3LjAnLCAnLXRuJywgJzgnLCAnLW1hJywgJzIwMCcsICctaW1hZScsICc8aW5maWxlLm1hZT4nLCAnLW9tYWUnLCAnPG91dGZpbGUubWFlPic=

>  <r_lp_tautomer_probability>  (161) 
1

>  <r_epik_Ionization_Penalty>  (161) 
2.4367e-06

>  <r_epik_Ionization_Penalty_Charging>  (161) 
0

>  <r_epik_Ionization_Penalty_Neutral>  (161) 
2.4367e-06

>  <r_epik_State_Penalty>  (161) 
-0

>  <r_epik_Charging_Adjusted_Penalty>  (161) 
0

>  <i_epik_Tot_Q>  (161) 
0

>  <i_epik_Tot_abs_Q>  (161) 
0

>  <s_lp_Force_Field>  (161) 
OPLS3e

>  <r_lp_Energy>  (161) 
122.955

>  <b_lp_Chiralities_Consistent>  (161) 
1

>  <s_lp_Variant>  (161) 
47:0-1

>  <s_i_glide_gridfile>  (161) 
pfpi4k_grid

>  <i_i_glide_lignum>  (161) 
28

>  <i_i_glide_rotatable_bonds>  (161) 
2

>  <r_i_docking_score>  (161) 
-3.13106

>  <r_i_glide_ligand_efficiency>  (161) 
-0.104369

>  <r_i_glide_ligand_efficiency_sa>  (161) 
-0.324298

>  <r_i_glide_ligand_efficiency_ln>  (161) 
-0.711412

>  <r_i_glide_gscore>  (161) 
-3.13106

>  <r_i_glide_lipo>  (161) 
-0.578334

>  <r_i_glide_hbond>  (161) 
-0.16

>  <r_i_glide_metal>  (161) 
-0

>  <r_i_glide_rewards>  (161) 
-0.582132

>  <r_i_glide_evdw>  (161) 
-25.1088

>  <r_i_glide_ecoul>  (161) 
-3.70107

>  <r_i_glide_erotb>  (161) 
0

>  <r_i_glide_esite>  (161) 
0

>  <r_i_glide_emodel>  (161) 
-34.0577

>  <r_i_glide_energy>  (161) 
-28.8098

>  <r_i_glide_einternal>  (161) 
0.130639

>  <r_i_glide_intrahb_reward>  (161) 
-0

>  <i_i_glide_confnum>  (161) 
1

>  <i_i_glide_posenum>  (161) 
23

>  <r_i_glide_eff_state_penalty>  (161) 
0

>  <ligand_id>  (161) 
47

>  <original_smiles>  (161) 
CC1=C2CC3C(C(C1)CC(C)(C)C2)C1OC12C(O)CC1C(C)(C)C(O)CCC1(C)C32

>  <smiles>  (161) 
[H]OC1([H])C([H])([H])C2([H])C(C([H])([H])[H])(C([H])([H])[H])C([H])(O[H])C([H])([H])C([H])([H])C2(C([H])([H])[H])C2([H])C3([H])C([H])([H])C4=C(C([H])([H])[H])C([H])([H])C([H])(C([H])([H])C(C([H])([H])[H])(C([H])([H])[H])C4([H])[H])C3([H])C3([H])OC132

$$$$
47:0:1
     RDKit          3D

 72 77  0  0  1  0  0  0  0  0999 V2000
    2.9905   -5.2008    6.5879 C   0  0  0  0  0  0  0  0  0  0  0  0
    2.2511   -3.8726    6.4978 C   0  0  0  0  0  0  0  0  0  0  0  0
    2.8064   -2.7190    6.0873 C   0  0  0  0  0  0  0  0  0  0  0  0
    3.6441   -2.7598    4.8243 C   0  0  0  0  0  0  0  0  0  0  0  0
    2.7665   -2.7237    3.5326 C   0  0  2  0  0  0  0  0  0  0  0  0
    1.3291   -3.3634    3.6615 C   0  0  2  0  0  0  0  0  0  0  0  0
    0.4005   -3.2042    4.9181 C   0  0  1  0  0  0  0  0  0  0  0  0
    0.7798   -4.0146    6.1921 C   0  0  0  0  0  0  0  0  0  0  0  0
   -0.0245   -1.7452    5.2295 C   0  0  0  0  0  0  0  0  0  0  0  0
    1.0468   -0.7280    5.7156 C   0  0  0  0  0  0  0  0  0  0  0  0
    1.5909    0.1567    4.5635 C   0  0  0  0  0  0  0  0  0  0  0  0
    0.3331    0.2464    6.6844 C   0  0  0  0  0  0  0  0  0  0  0  0
    2.2086   -1.3778    6.5164 C   0  0  0  0  0  0  0  0  0  0  0  0
    1.4893   -4.7845    3.1460 C   0  0  2  0  0  0  0  0  0  0  0  0
    2.6451   -5.5369    3.5365 O   0  0  0  0  0  0  0  0  0  0  0  0
    2.7024   -4.8317    2.2889 C   0  0  1  0  0  0  0  0  0  0  0  0
    2.9015   -5.6890    1.0477 C   0  0  1  0  0  0  0  0  0  0  0  0
    1.8190   -5.5225    0.1564 O   0  0  0  0  0  0  0  0  0  0  0  0
    4.2639   -5.4765    0.3333 C   0  0  0  0  0  0  0  0  0  0  0  0
    4.9217   -4.0607    0.3960 C   0  0  1  0  0  0  0  0  0  0  0  0
    4.6604   -3.1009   -0.8406 C   0  0  0  0  0  0  0  0  0  0  0  0
    5.3666   -3.6895   -2.0840 C   0  0  0  0  0  0  0  0  0  0  0  0
    3.1723   -2.9137   -1.2124 C   0  0  0  0  0  0  0  0  0  0  0  0
    5.3242   -1.7199   -0.5821 C   0  0  1  0  0  0  0  0  0  0  0  0
    5.0209   -0.7977   -1.6097 O   0  0  0  0  0  0  0  0  0  0  0  0
    4.9547   -1.1111    0.7692 C   0  0  0  0  0  0  0  0  0  0  0  0
    5.4453   -2.0357    1.8793 C   0  0  0  0  0  0  0  0  0  0  0  0
    4.8293   -3.4588    1.8436 C   0  0  2  0  0  0  0  0  0  0  0  0
    5.6875   -4.3496    2.7784 C   0  0  0  0  0  0  0  0  0  0  0  0
    3.3300   -3.4615    2.2688 C   0  0  2  0  0  0  0  0  0  0  0  0
    2.6299   -5.9521    5.8894 H   0  0  0  0  0  0  0  0  0  0  0  0
    2.8523   -5.5970    7.5918 H   0  0  0  0  0  0  0  0  0  0  0  0
    4.0650   -5.0806    6.4525 H   0  0  0  0  0  0  0  0  0  0  0  0
    4.3749   -1.9551    4.8335 H   0  0  0  0  0  0  0  0  0  0  0  0
    4.1876   -3.6943    4.8352 H   0  0  0  0  0  0  0  0  0  0  0  0
    2.6753   -1.6830    3.2272 H   0  0  0  0  0  0  0  0  0  0  0  0
    0.7539   -2.8605    2.8840 H   0  0  0  0  0  0  0  0  0  0  0  0
   -0.5407   -3.6516    4.6013 H   0  0  0  0  0  0  0  0  0  0  0  0
    0.5568   -5.0626    5.9947 H   0  0  0  0  0  0  0  0  0  0  0  0
    0.1779   -3.7318    7.0506 H   0  0  0  0  0  0  0  0  0  0  0  0
   -0.5415   -1.3297    4.3642 H   0  0  0  0  0  0  0  0  0  0  0  0
   -0.8040   -1.8200    5.9882 H   0  0  0  0  0  0  0  0  0  0  0  0
    2.6789    0.1291    4.5036 H   0  0  0  0  0  0  0  0  0  0  0  0
    1.3324    1.2092    4.6900 H   0  0  0  0  0  0  0  0  0  0  0  0
    1.1935   -0.1309    3.5922 H   0  0  0  0  0  0  0  0  0  0  0  0
    1.0207    1.0066    7.0651 H   0  0  0  0  0  0  0  0  0  0  0  0
   -0.0809   -0.2725    7.5517 H   0  0  0  0  0  0  0  0  0  0  0  0
   -0.4911    0.7662    6.1897 H   0  0  0  0  0  0  0  0  0  0  0  0
    1.8613   -1.5517    7.5335 H   0  0  0  0  0  0  0  0  0  0  0  0
    3.0268   -0.6673    6.6290 H   0  0  0  0  0  0  0  0  0  0  0  0
    0.6047   -5.3424    2.8465 H   0  0  0  0  0  0  0  0  0  0  0  0
    2.8653   -6.7299    1.3708 H   0  0  0  0  0  0  0  0  0  0  0  0
    2.1003   -5.8432   -0.6896 H   0  0  0  0  0  0  0  0  0  0  0  0
    4.9664   -6.1674    0.7993 H   0  0  0  0  0  0  0  0  0  0  0  0
    4.2020   -5.8319   -0.6911 H   0  0  0  0  0  0  0  0  0  0  0  0
    5.9830   -4.2813    0.2651 H   0  0  0  0  0  0  0  0  0  0  0  0
    5.2825   -3.0278   -2.9485 H   0  0  0  0  0  0  0  0  0  0  0  0
    4.9509   -4.6528   -2.3793 H   0  0  0  0  0  0  0  0  0  0  0  0
    6.4323   -3.8322   -1.8998 H   0  0  0  0  0  0  0  0  0  0  0  0
    3.0610   -2.4142   -2.1759 H   0  0  0  0  0  0  0  0  0  0  0  0
    2.6177   -2.3080   -0.4966 H   0  0  0  0  0  0  0  0  0  0  0  0
    2.6638   -3.8615   -1.3352 H   0  0  0  0  0  0  0  0  0  0  0  0
    6.4064   -1.8434   -0.5905 H   0  0  0  0  0  0  0  0  0  0  0  0
    4.0954   -0.6071   -1.5653 H   0  0  0  0  0  0  0  0  0  0  0  0
    5.4342   -0.1397    0.8836 H   0  0  0  0  0  0  0  0  0  0  0  0
    3.8862   -0.9293    0.8619 H   0  0  0  0  0  0  0  0  0  0  0  0
    6.5308   -2.1186    1.7912 H   0  0  0  0  0  0  0  0  0  0  0  0
    5.2730   -1.5658    2.8435 H   0  0  0  0  0  0  0  0  0  0  0  0
    5.8951   -3.8470    3.7166 H   0  0  0  0  0  0  0  0  0  0  0  0
    6.6610   -4.5635    2.3355 H   0  0  0  0  0  0  0  0  0  0  0  0
    5.2300   -5.3092    3.0160 H   0  0  0  0  0  0  0  0  0  0  0  0
    2.8095   -2.9629    1.4605 H   0  0  0  0  0  0  0  0  0  0  0  0
  1  2  1  0
  1 31  1  0
  1 32  1  0
  1 33  1  0
  2  8  1  0
  2  3  2  0
  3 13  1  0
  3  4  1  0
  4  5  1  0
  4 34  1  0
  4 35  1  0
  5 30  1  0
  5  6  1  0
  5 36  1  6
  6  7  1  0
  6 14  1  0
  6 37  1  6
  7  8  1  0
  7  9  1  0
  7 38  1  6
  8 39  1  0
  8 40  1  0
  9 10  1  0
  9 41  1  0
  9 42  1  0
 10 11  1  0
 10 12  1  0
 10 13  1  0
 11 43  1  0
 11 44  1  0
 11 45  1  0
 12 46  1  0
 12 47  1  0
 12 48  1  0
 13 49  1  0
 13 50  1  0
 14 16  1  0
 14 15  1  0
 14 51  1  6
 16 15  1  1
 16 30  1  0
 16 17  1  0
 17 18  1  0
 17 19  1  0
 17 52  1  1
 18 53  1  0
 19 20  1  0
 19 54  1  0
 19 55  1  0
 20 28  1  0
 20 21  1  0
 20 56  1  6
 21 22  1  0
 21 23  1  0
 21 24  1  0
 22 57  1  0
 22 58  1  0
 22 59  1  0
 23 60  1  0
 23 61  1  0
 23 62  1  0
 24 25  1  0
 24 26  1  0
 24 63  1  1
 25 64  1  0
 26 27  1  0
 26 65  1  0
 26 66  1  0
 27 28  1  0
 27 67  1  0
 27 68  1  0
 28 29  1  1
 28 30  1  0
 29 69  1  0
 29 70  1  0
 29 71  1  0
 30 72  1  6
M  END
>  <i_m_ct_stereo_status>  (162) 
1

>  <s_m_source_file>  (162) 
/var/tmp/pbs.5076255.sched01/tmp5eg4wc32/41mqp692j8.sdf

>  <i_m_source_file_index>  (162) 
28

>  <i_lp_mmshare_version>  (162) 
48012

>  <i_f3d_flags>  (162) 
0

>  <s_epik_input>  (162) 
W0NIM11DKFtDSDNdKShbQ0gyXTEpW0NIMl1bQ0BASF0yW0NIMl1DKFtDSDNdKT1DMVtDSDJdW0NASF0oW0NASF0yW0NASF0oTzMpW0NAQF0zNDUpW0NASF01W0NAQF02KFtDSDNdKVtDQEBIXShbQ0gyXVtDQEBIXTRbT0hdKUMoW0NIM10pKFtDSDNdKVtDQEBIXShbT0hdKVtDSDJdW0NIMl02

>  <s_epik_cmdline>  (162) 
J2VwaWtfcHl0aG9uJywgJy1waHQnLCAnMi4wJywgJy1waCcsICc3LjAnLCAnLXRuJywgJzgnLCAnLW1hJywgJzIwMCcsICctaW1hZScsICc8aW5maWxlLm1hZT4nLCAnLW9tYWUnLCAnPG91dGZpbGUubWFlPic=

>  <r_lp_tautomer_probability>  (162) 
1

>  <r_epik_Ionization_Penalty>  (162) 
2.4367e-06

>  <r_epik_Ionization_Penalty_Charging>  (162) 
0

>  <r_epik_Ionization_Penalty_Neutral>  (162) 
2.4367e-06

>  <r_epik_State_Penalty>  (162) 
-0

>  <r_epik_Charging_Adjusted_Penalty>  (162) 
0

>  <i_epik_Tot_Q>  (162) 
0

>  <i_epik_Tot_abs_Q>  (162) 
0

>  <s_lp_Force_Field>  (162) 
OPLS3e

>  <r_lp_Energy>  (162) 
122.955

>  <b_lp_Chiralities_Consistent>  (162) 
1

>  <s_lp_Variant>  (162) 
47:0-1

>  <s_i_glide_gridfile>  (162) 
pfpi4k_grid

>  <i_i_glide_lignum>  (162) 
28

>  <i_i_glide_rotatable_bonds>  (162) 
2

>  <r_i_docking_score>  (162) 
-2.96446

>  <r_i_glide_ligand_efficiency>  (162) 
-0.0988153

>  <r_i_glide_ligand_efficiency_sa>  (162) 
-0.307042

>  <r_i_glide_ligand_efficiency_ln>  (162) 
-0.673558

>  <r_i_glide_gscore>  (162) 
-2.96446

>  <r_i_glide_lipo>  (162) 
-0.445105

>  <r_i_glide_hbond>  (162) 
0

>  <r_i_glide_metal>  (162) 
-0

>  <r_i_glide_rewards>  (162) 
-0.582132

>  <r_i_glide_evdw>  (162) 
-25.2238

>  <r_i_glide_ecoul>  (162) 
-4.50689

>  <r_i_glide_erotb>  (162) 
0

>  <r_i_glide_esite>  (162) 
0

>  <r_i_glide_emodel>  (162) 
-34.287

>  <r_i_glide_energy>  (162) 
-29.7307

>  <r_i_glide_einternal>  (162) 
0.977343

>  <r_i_glide_intrahb_reward>  (162) 
-0

>  <i_i_glide_confnum>  (162) 
1

>  <i_i_glide_posenum>  (162) 
11

>  <r_i_glide_eff_state_penalty>  (162) 
0

>  <ligand_id>  (162) 
47

>  <original_smiles>  (162) 
CC1=C2CC3C(C(C1)CC(C)(C)C2)C1OC12C(O)CC1C(C)(C)C(O)CCC1(C)C32

>  <smiles>  (162) 
[H]OC1([H])C([H])([H])C2([H])C(C([H])([H])[H])(C([H])([H])[H])C([H])(O[H])C([H])([H])C([H])([H])C2(C([H])([H])[H])C2([H])C3([H])C([H])([H])C4=C(C([H])([H])[H])C([H])([H])C([H])(C([H])([H])C(C([H])([H])[H])(C([H])([H])[H])C4([H])[H])C3([H])C3([H])OC132

$$$$
47:0:2
     RDKit          3D

 72 77  0  0  1  0  0  0  0  0999 V2000
    6.2343   -6.1622    2.6156 C   0  0  0  0  0  0  0  0  0  0  0  0
    4.8299   -6.7489    2.6253 C   0  0  0  0  0  0  0  0  0  0  0  0
    3.8940   -6.4616    3.5514 C   0  0  0  0  0  0  0  0  0  0  0  0
    3.6895   -5.0037    3.9017 C   0  0  0  0  0  0  0  0  0  0  0  0
    2.7838   -4.2669    2.8631 C   0  0  2  0  0  0  0  0  0  0  0  0
    2.8461   -4.8034    1.3809 C   0  0  2  0  0  0  0  0  0  0  0  0
    2.9250   -6.3228    1.0161 C   0  0  1  0  0  0  0  0  0  0  0  0
    4.2821   -7.0579    1.2537 C   0  0  0  0  0  0  0  0  0  0  0  0
    1.7032   -7.1742    1.4661 C   0  0  0  0  0  0  0  0  0  0  0  0
    1.4591   -7.4208    2.9849 C   0  0  0  0  0  0  0  0  0  0  0  0
    0.4301   -6.4317    3.5817 C   0  0  0  0  0  0  0  0  0  0  0  0
    0.8074   -8.8233    3.1163 C   0  0  0  0  0  0  0  0  0  0  0  0
    2.7590   -7.4487    3.8316 C   0  0  0  0  0  0  0  0  0  0  0  0
    3.8550   -3.9237    0.6781 C   0  0  2  0  0  0  0  0  0  0  0  0
    5.0773   -3.5897    1.3687 O   0  0  0  0  0  0  0  0  0  0  0  0
    3.9777   -2.6670    1.4542 C   0  0  1  0  0  0  0  0  0  0  0  0
    4.2343   -1.2948    0.8782 C   0  0  1  0  0  0  0  0  0  0  0  0
    3.4174   -1.0594   -0.2448 O   0  0  0  0  0  0  0  0  0  0  0  0
    4.2187   -0.1458    1.9212 C   0  0  0  0  0  0  0  0  0  0  0  0
    3.3206   -0.2859    3.1930 C   0  0  1  0  0  0  0  0  0  0  0  0
    1.9028    0.4241    3.1451 C   0  0  0  0  0  0  0  0  0  0  0  0
    2.1173    1.9580    3.1057 C   0  0  0  0  0  0  0  0  0  0  0  0
    1.0549    0.0728    1.9069 C   0  0  0  0  0  0  0  0  0  0  0  0
    1.0959    0.1108    4.4399 C   0  0  1  0  0  0  0  0  0  0  0  0
   -0.2348    0.5928    4.3933 O   0  0  0  0  0  0  0  0  0  0  0  0
    1.0513   -1.3821    4.7668 C   0  0  0  0  0  0  0  0  0  0  0  0
    2.4708   -1.8840    5.0102 C   0  0  0  0  0  0  0  0  0  0  0  0
    3.4141   -1.7371    3.7920 C   0  0  2  0  0  0  0  0  0  0  0  0
    4.8583   -1.9446    4.3298 C   0  0  0  0  0  0  0  0  0  0  0  0
    3.0642   -2.7404    2.6479 C   0  0  2  0  0  0  0  0  0  0  0  0
    6.4296   -5.5161    1.7640 H   0  0  0  0  0  0  0  0  0  0  0  0
    6.9491   -6.9825    2.5729 H   0  0  0  0  0  0  0  0  0  0  0  0
    6.4586   -5.6154    3.5300 H   0  0  0  0  0  0  0  0  0  0  0  0
    3.2876   -4.9188    4.9100 H   0  0  0  0  0  0  0  0  0  0  0  0
    4.6618   -4.5270    3.9020 H   0  0  0  0  0  0  0  0  0  0  0  0
    1.7641   -4.3195    3.2234 H   0  0  0  0  0  0  0  0  0  0  0  0
    1.8943   -4.4993    0.9423 H   0  0  0  0  0  0  0  0  0  0  0  0
    2.8390   -6.2781   -0.0678 H   0  0  0  0  0  0  0  0  0  0  0  0
    4.9932   -6.7122    0.5016 H   0  0  0  0  0  0  0  0  0  0  0  0
    4.1973   -8.1336    1.1107 H   0  0  0  0  0  0  0  0  0  0  0  0
    0.7981   -6.7704    1.0136 H   0  0  0  0  0  0  0  0  0  0  0  0
    1.8164   -8.1435    0.9790 H   0  0  0  0  0  0  0  0  0  0  0  0
    0.8165   -5.9110    4.4576 H   0  0  0  0  0  0  0  0  0  0  0  0
   -0.4866   -6.9254    3.9086 H   0  0  0  0  0  0  0  0  0  0  0  0
    0.1391   -5.6824    2.8532 H   0  0  0  0  0  0  0  0  0  0  0  0
    0.5864   -9.0674    4.1588 H   0  0  0  0  0  0  0  0  0  0  0  0
    1.4614   -9.6111    2.7342 H   0  0  0  0  0  0  0  0  0  0  0  0
   -0.1302   -8.8858    2.5567 H   0  0  0  0  0  0  0  0  0  0  0  0
    3.2109   -8.4315    3.7190 H   0  0  0  0  0  0  0  0  0  0  0  0
    2.5127   -7.3896    4.8909 H   0  0  0  0  0  0  0  0  0  0  0  0
    3.8707   -3.8938   -0.4113 H   0  0  0  0  0  0  0  0  0  0  0  0
    5.2374   -1.3120    0.4592 H   0  0  0  0  0  0  0  0  0  0  0  0
    2.4884   -1.0610   -0.0235 H   0  0  0  0  0  0  0  0  0  0  0  0
    5.2423   -0.0453    2.2865 H   0  0  0  0  0  0  0  0  0  0  0  0
    4.0291    0.7927    1.4034 H   0  0  0  0  0  0  0  0  0  0  0  0
    3.8303    0.3366    3.9283 H   0  0  0  0  0  0  0  0  0  0  0  0
    1.1682    2.4971    3.1367 H   0  0  0  0  0  0  0  0  0  0  0  0
    2.6334    2.2861    2.2036 H   0  0  0  0  0  0  0  0  0  0  0  0
    2.7039    2.2974    3.9620 H   0  0  0  0  0  0  0  0  0  0  0  0
    0.1851    0.7262    1.8046 H   0  0  0  0  0  0  0  0  0  0  0  0
    0.6674   -0.9448    1.9245 H   0  0  0  0  0  0  0  0  0  0  0  0
    1.6241    0.2091    0.9914 H   0  0  0  0  0  0  0  0  0  0  0  0
    1.5764    0.6133    5.2796 H   0  0  0  0  0  0  0  0  0  0  0  0
   -0.6302    0.2996    3.5853 H   0  0  0  0  0  0  0  0  0  0  0  0
    0.4700   -1.5385    5.6747 H   0  0  0  0  0  0  0  0  0  0  0  0
    0.5582   -1.9634    3.9890 H   0  0  0  0  0  0  0  0  0  0  0  0
    2.8883   -1.3232    5.8470 H   0  0  0  0  0  0  0  0  0  0  0  0
    2.4339   -2.9179    5.3447 H   0  0  0  0  0  0  0  0  0  0  0  0
    4.9248   -2.7779    5.0244 H   0  0  0  0  0  0  0  0  0  0  0  0
    5.1924   -1.0786    4.9010 H   0  0  0  0  0  0  0  0  0  0  0  0
    5.5889   -2.1028    3.5376 H   0  0  0  0  0  0  0  0  0  0  0  0
    2.1140   -2.3939    2.2558 H   0  0  0  0  0  0  0  0  0  0  0  0
  1  2  1  0
  1 31  1  0
  1 32  1  0
  1 33  1  0
  2  8  1  0
  2  3  2  0
  3 13  1  0
  3  4  1  0
  4  5  1  0
  4 34  1  0
  4 35  1  0
  5 30  1  0
  5  6  1  0
  5 36  1  1
  6  7  1  0
  6 14  1  0
  6 37  1  6
  7  8  1  0
  7  9  1  0
  7 38  1  6
  8 39  1  0
  8 40  1  0
  9 10  1  0
  9 41  1  0
  9 42  1  0
 10 11  1  0
 10 12  1  0
 10 13  1  0
 11 43  1  0
 11 44  1  0
 11 45  1  0
 12 46  1  0
 12 47  1  0
 12 48  1  0
 13 49  1  0
 13 50  1  0
 14 16  1  0
 14 15  1  0
 14 51  1  6
 16 15  1  1
 16 30  1  0
 16 17  1  0
 17 18  1  0
 17 19  1  0
 17 52  1  6
 18 53  1  0
 19 20  1  0
 19 54  1  0
 19 55  1  0
 20 28  1  0
 20 21  1  0
 20 56  1  1
 21 22  1  0
 21 23  1  0
 21 24  1  0
 22 57  1  0
 22 58  1  0
 22 59  1  0
 23 60  1  0
 23 61  1  0
 23 62  1  0
 24 25  1  0
 24 26  1  0
 24 63  1  1
 25 64  1  0
 26 27  1  0
 26 65  1  0
 26 66  1  0
 27 28  1  0
 27 67  1  0
 27 68  1  0
 28 29  1  1
 28 30  1  0
 29 69  1  0
 29 70  1  0
 29 71  1  0
 30 72  1  6
M  END
>  <i_m_ct_stereo_status>  (163) 
1

>  <s_m_source_file>  (163) 
/var/tmp/pbs.5076255.sched01/tmp5eg4wc32/41mqp692j8.sdf

>  <i_m_source_file_index>  (163) 
28

>  <i_lp_mmshare_version>  (163) 
48012

>  <i_f3d_flags>  (163) 
0

>  <s_epik_input>  (163) 
W0NIM11DKFtDSDNdKShbQ0gyXTEpW0NIMl1bQ0BASF0yW0NIMl1DKFtDSDNdKT1DMVtDSDJdW0NASF0oW0NASF0yW0NASF0oTzMpW0NAQF0zNDUpW0NASF01W0NAQF02KFtDSDNdKVtDQEBIXShbQ0gyXVtDQEBIXTRbT0hdKUMoW0NIM10pKFtDSDNdKVtDQEBIXShbT0hdKVtDSDJdW0NIMl02

>  <s_epik_cmdline>  (163) 
J2VwaWtfcHl0aG9uJywgJy1waHQnLCAnMi4wJywgJy1waCcsICc3LjAnLCAnLXRuJywgJzgnLCAnLW1hJywgJzIwMCcsICctaW1hZScsICc8aW5maWxlLm1hZT4nLCAnLW9tYWUnLCAnPG91dGZpbGUubWFlPic=

>  <r_lp_tautomer_probability>  (163) 
1

>  <r_epik_Ionization_Penalty>  (163) 
2.4367e-06

>  <r_epik_Ionization_Penalty_Charging>  (163) 
0

>  <r_epik_Ionization_Penalty_Neutral>  (163) 
2.4367e-06

>  <r_epik_State_Penalty>  (163) 
-0

>  <r_epik_Charging_Adjusted_Penalty>  (163) 
0

>  <i_epik_Tot_Q>  (163) 
0

>  <i_epik_Tot_abs_Q>  (163) 
0

>  <s_lp_Force_Field>  (163) 
OPLS3e

>  <r_lp_Energy>  (163) 
122.955

>  <b_lp_Chiralities_Consistent>  (163) 
1

>  <s_lp_Variant>  (163) 
47:0-1

>  <s_i_glide_gridfile>  (163) 
pfpi4k_grid

>  <i_i_glide_lignum>  (163) 
28

>  <i_i_glide_rotatable_bonds>  (163) 
2

>  <r_i_docking_score>  (163) 
-2.71026

>  <r_i_glide_ligand_efficiency>  (163) 
-0.0903419

>  <r_i_glide_ligand_efficiency_sa>  (163) 
-0.280713

>  <r_i_glide_ligand_efficiency_ln>  (163) 
-0.6158

>  <r_i_glide_gscore>  (163) 
-2.71026

>  <r_i_glide_lipo>  (163) 
-0.220708

>  <r_i_glide_hbond>  (163) 
0

>  <r_i_glide_metal>  (163) 
-0

>  <r_i_glide_rewards>  (163) 
-0.582132

>  <r_i_glide_evdw>  (163) 
-25.5791

>  <r_i_glide_ecoul>  (163) 
-4.18973

>  <r_i_glide_erotb>  (163) 
0

>  <r_i_glide_esite>  (163) 
0

>  <r_i_glide_emodel>  (163) 
-34.0523

>  <r_i_glide_energy>  (163) 
-29.7689

>  <r_i_glide_einternal>  (163) 
0.0914861

>  <r_i_glide_intrahb_reward>  (163) 
-0

>  <i_i_glide_confnum>  (163) 
1

>  <i_i_glide_posenum>  (163) 
14

>  <r_i_glide_eff_state_penalty>  (163) 
0

>  <ligand_id>  (163) 
47

>  <original_smiles>  (163) 
CC1=C2CC3C(C(C1)CC(C)(C)C2)C1OC12C(O)CC1C(C)(C)C(O)CCC1(C)C32

>  <smiles>  (163) 
[H]OC1([H])C([H])([H])C2([H])C(C([H])([H])[H])(C([H])([H])[H])C([H])(O[H])C([H])([H])C([H])([H])C2(C([H])([H])[H])C2([H])C3([H])C([H])([H])C4=C(C([H])([H])[H])C([H])([H])C([H])(C([H])([H])C(C([H])([H])[H])(C([H])([H])[H])C4([H])[H])C3([H])C3([H])OC132

$$$$
48:0:0
     RDKit          3D

 48 53  0  0  1  0  0  0  0  0999 V2000
   -0.2100   -5.8925    6.2067 C   0  0  0  0  0  0  0  0  0  0  0  0
   -0.3445   -6.5368    4.9143 N   0  0  0  0  0  0  0  0  0  0  0  0
   -1.5244   -7.0541    4.4781 N   0  0  0  0  0  0  0  0  0  0  0  0
   -1.2783   -7.5769    3.2691 C   0  0  0  0  0  0  0  0  0  0  0  0
    0.0837   -7.3699    2.9112 C   0  0  0  0  0  0  0  0  0  0  0  0
    0.6084   -6.7318    3.9567 C   0  0  0  0  0  0  0  0  0  0  0  0
    2.0383   -6.4429    3.8760 C   0  0  0  0  0  0  0  0  0  0  0  0
    2.3708   -6.9746    2.4408 C   0  0  1  0  0  0  0  0  0  0  0  0
    3.5612   -7.8811    2.4281 N   0  0  2  0  0  0  0  0  0  0  0  0
    4.7934   -7.4080    3.1019 C   0  0  1  0  0  0  0  0  0  0  0  0
    5.7837   -8.5435    2.8159 C   0  0  0  0  0  0  0  0  0  0  0  0
    5.3030   -9.1519    1.4839 C   0  0  0  0  0  0  0  0  0  0  0  0
    4.0657   -8.3256    1.1119 C   0  0  2  0  0  0  0  0  0  0  0  0
    4.4523   -7.0929    0.2650 C   0  0  0  0  0  0  0  0  0  0  0  0
    5.5261   -6.2009    0.9602 C   0  0  1  0  0  0  0  0  0  0  0  0
    5.5674   -4.8885    0.3330 N   0  0  0  0  0  0  0  0  0  0  0  0
    4.4800   -4.1710   -0.0447 N   0  0  0  0  0  0  0  0  0  0  0  0
    5.0289   -3.0528   -0.5827 C   0  0  0  0  0  0  0  0  0  0  0  0
    6.3621   -3.0852   -0.4893 N   0  0  0  0  0  0  0  0  0  0  0  0
    7.3606   -2.2619   -0.8274 N   0  0  0  0  0  0  0  0  0  0  0  0
    8.3638   -3.0256   -0.3725 C   0  0  0  0  0  0  0  0  0  0  0  0
    8.0030   -4.2412    0.2086 N   0  0  0  0  0  0  0  0  0  0  0  0
    6.7141   -4.2162    0.0975 C   0  0  0  0  0  0  0  0  0  0  0  0
    5.2637   -6.0694    2.4788 C   0  0  0  0  0  0  0  0  0  0  0  0
    1.0803   -7.6591    1.8460 C   0  0  0  0  0  0  0  0  0  0  0  0
    0.8402   -5.6913    6.4133 H   0  0  0  0  0  0  0  0  0  0  0  0
   -0.5824   -6.5372    7.0008 H   0  0  0  0  0  0  0  0  0  0  0  0
   -0.7525   -4.9487    6.2056 H   0  0  0  0  0  0  0  0  0  0  0  0
   -2.0768   -8.0605    2.7228 H   0  0  0  0  0  0  0  0  0  0  0  0
    2.2264   -5.3708    3.9610 H   0  0  0  0  0  0  0  0  0  0  0  0
    2.5479   -6.9450    4.6934 H   0  0  0  0  0  0  0  0  0  0  0  0
    2.5255   -6.0624    1.8600 H   0  0  0  0  0  0  0  0  0  0  0  0
    4.6661   -7.2950    4.1787 H   0  0  0  0  0  0  0  0  0  0  0  0
    6.8126   -8.1886    2.7777 H   0  0  0  0  0  0  0  0  0  0  0  0
    5.7243   -9.2924    3.6056 H   0  0  0  0  0  0  0  0  0  0  0  0
    6.0681   -9.1233    0.7098 H   0  0  0  0  0  0  0  0  0  0  0  0
    5.0187  -10.1950    1.6261 H   0  0  0  0  0  0  0  0  0  0  0  0
    3.3345   -8.9374    0.5801 H   0  0  0  0  0  0  0  0  0  0  0  0
    4.7779   -7.3930   -0.7225 H   0  0  0  0  0  0  0  0  0  0  0  0
    3.5538   -6.5305    0.0351 H   0  0  0  0  0  0  0  0  0  0  0  0
    6.5046   -6.6609    0.8297 H   0  0  0  0  0  0  0  0  0  0  0  0
    4.5407   -2.1997   -1.0401 H   0  0  0  0  0  0  0  0  0  0  0  0
    9.3832   -2.6825   -0.4484 H   0  0  0  0  0  0  0  0  0  0  0  0
    4.5247   -5.2911    2.6614 H   0  0  0  0  0  0  0  0  0  0  0  0
    6.1641   -5.7226    2.9883 H   0  0  0  0  0  0  0  0  0  0  0  0
    1.1895   -8.7315    1.6846 H   0  0  0  0  0  0  0  0  0  0  0  0
    0.7994   -7.2080    0.8898 H   0  0  0  0  0  0  0  0  0  0  0  0
    3.2973   -8.7322    2.9080 H   0  0  0  0  0  0  0  0  0  0  0  0
  1  2  1  0
  1 26  1  0
  1 27  1  0
  1 28  1  0
  2  6  1  0
  2  3  1  0
  3  4  2  0
  4  5  1  0
  4 29  1  0
  5 25  1  0
  5  6  2  0
  6  7  1  0
  7  8  1  0
  7 30  1  0
  7 31  1  0
  8  9  1  0
  8 25  1  0
  8 32  1  6
  9 13  1  0
  9 10  1  0
  9 48  1  1
 10 24  1  0
 10 11  1  0
 10 33  1  1
 11 12  1  0
 11 34  1  0
 11 35  1  0
 12 13  1  0
 12 36  1  0
 12 37  1  0
 13 14  1  0
 13 38  1  6
 14 15  1  0
 14 39  1  0
 14 40  1  0
 15 16  1  0
 15 24  1  0
 15 41  1  1
 16 23  1  0
 16 17  1  0
 17 18  2  0
 18 19  1  0
 18 42  1  0
 19 23  1  0
 19 20  1  0
 20 21  2  0
 21 22  1  0
 21 43  1  0
 22 23  2  0
 24 44  1  0
 24 45  1  0
 25 46  1  0
 25 47  1  0
M  CHG  1   9   1
M  END
>  <i_m_ct_stereo_status>  (164) 
1

>  <s_m_source_file>  (164) 
/var/tmp/pbs.5076255.sched01/tmp5eg4wc32/41mqp692j8.sdf

>  <i_m_source_file_index>  (164) 
29

>  <i_lp_mmshare_version>  (164) 
48012

>  <i_f3d_flags>  (164) 
0

>  <s_epik_input>  (164) 
W2NIXTFubihbQ0gzXSljKGMxMilbQ0gyXVtDQEhdKFtDSDJdMilOKFtDQEBIXTM0KVtDQEhdKFtDSDJdW0NIMl0zKVtDSDJdW0NASF0oW0NIMl00KW4obltjSF01KWMobjU2KW5bY0hdbjY=

>  <s_epik_cmdline>  (164) 
J2VwaWtfcHl0aG9uJywgJy1waHQnLCAnMi4wJywgJy1waCcsICc3LjAnLCAnLXRuJywgJzgnLCAnLW1hJywgJzIwMCcsICctaW1hZScsICc8aW5maWxlLm1hZT4nLCAnLW9tYWUnLCAnPG91dGZpbGUubWFlPic=

>  <r_lp_tautomer_probability>  (164) 
1

>  <r_epik_Ionization_Penalty>  (164) 
0.00192216

>  <r_epik_Ionization_Penalty_Charging>  (164) 
0.00191709

>  <r_epik_Ionization_Penalty_Neutral>  (164) 
5.066e-06

>  <r_epik_State_Penalty>  (164) 
0.00130582

>  <r_epik_Charging_Adjusted_Penalty>  (164) 
0.00322291

>  <i_epik_Tot_Q>  (164) 
1

>  <i_epik_Tot_abs_Q>  (164) 
1

>  <s_lp_Force_Field>  (164) 
OPLS3e

>  <r_lp_Energy>  (164) 
19.0928

>  <b_lp_Chiralities_Consistent>  (164) 
1

>  <s_lp_Variant>  (164) 
48:0-1

>  <s_i_glide_gridfile>  (164) 
pfpi4k_grid

>  <i_i_glide_lignum>  (164) 
29

>  <i_i_glide_rotatable_bonds>  (164) 
2

>  <r_i_docking_score>  (164) 
-3.54744

>  <r_i_glide_ligand_efficiency>  (164) 
-0.141898

>  <r_i_glide_ligand_efficiency_sa>  (164) 
-0.414911

>  <r_i_glide_ligand_efficiency_ln>  (164) 
-0.84085

>  <r_i_glide_gscore>  (164) 
-3.54744

>  <r_i_glide_lipo>  (164) 
-0.220194

>  <r_i_glide_hbond>  (164) 
-0.16

>  <r_i_glide_metal>  (164) 
-0

>  <r_i_glide_rewards>  (164) 
-1.50382

>  <r_i_glide_evdw>  (164) 
-25.6937

>  <r_i_glide_ecoul>  (164) 
-4.51931

>  <r_i_glide_erotb>  (164) 
0.328536

>  <r_i_glide_esite>  (164) 
-0.0293782

>  <r_i_glide_emodel>  (164) 
-38.2868

>  <r_i_glide_energy>  (164) 
-30.213

>  <r_i_glide_einternal>  (164) 
0.992114

>  <r_i_glide_intrahb_reward>  (164) 
-0

>  <i_i_glide_confnum>  (164) 
4

>  <i_i_glide_posenum>  (164) 
23

>  <r_i_glide_eff_state_penalty>  (164) 
0

>  <ligand_id>  (164) 
48

>  <original_smiles>  (164) 
Cn1ncc2c1CC(N1C3CCC1CC(n1ncn4ncnc14)C3)C2

>  <smiles>  (164) 
[H]c1nc2n(C3([H])C([H])([H])C4([H])C([H])([H])C([H])([H])C([H])(C3([H])[H])[N+]4([H])C3([H])C([H])([H])c4c([H])nn(C([H])([H])[H])c4C3([H])[H])nc([H])n2n1

$$$$
48:0:1
     RDKit          3D

 48 53  0  0  1  0  0  0  0  0999 V2000
   -0.6123   -6.1663    5.0943 C   0  0  0  0  0  0  0  0  0  0  0  0
   -0.5103   -7.2059    4.0911 N   0  0  0  0  0  0  0  0  0  0  0  0
   -1.5061   -7.4538    3.1979 N   0  0  0  0  0  0  0  0  0  0  0  0
   -1.0789   -8.4935    2.4652 C   0  0  0  0  0  0  0  0  0  0  0  0
    0.2323   -8.8860    2.8567 C   0  0  0  0  0  0  0  0  0  0  0  0
    0.5325   -8.0547    3.8533 C   0  0  0  0  0  0  0  0  0  0  0  0
    1.8236   -8.2624    4.4856 C   0  0  0  0  0  0  0  0  0  0  0  0
    2.4146   -9.4145    3.5993 C   0  0  1  0  0  0  0  0  0  0  0  0
    2.9580  -10.5614    4.3973 N   0  0  2  0  0  0  0  0  0  0  0  0
    3.7508  -10.2502    5.6095 C   0  0  1  0  0  0  0  0  0  0  0  0
    4.1790  -11.6397    6.0998 C   0  0  0  0  0  0  0  0  0  0  0  0
    4.2236  -12.4979    4.8217 C   0  0  0  0  0  0  0  0  0  0  0  0
    3.8169  -11.5346    3.6869 C   0  0  2  0  0  0  0  0  0  0  0  0
    5.0697  -10.8290    3.0945 C   0  0  0  0  0  0  0  0  0  0  0  0
    5.8678  -10.0761    4.1937 C   0  0  1  0  0  0  0  0  0  0  0  0
    6.8644   -9.1692    3.6454 N   0  0  0  0  0  0  0  0  0  0  0  0
    8.1720   -9.1320    4.0250 N   0  0  0  0  0  0  0  0  0  0  0  0
    8.6701   -8.1191    3.2768 C   0  0  0  0  0  0  0  0  0  0  0  0
    7.7185   -7.5808    2.4969 N   0  0  0  0  0  0  0  0  0  0  0  0
    7.6716   -6.6043    1.5882 N   0  0  0  0  0  0  0  0  0  0  0  0
    6.3595   -6.7041    1.3145 C   0  0  0  0  0  0  0  0  0  0  0  0
    5.6576   -7.6709    2.0040 N   0  0  0  0  0  0  0  0  0  0  0  0
    6.5990   -8.2207    2.7456 C   0  0  0  0  0  0  0  0  0  0  0  0
    4.9675   -9.3674    5.2297 C   0  0  0  0  0  0  0  0  0  0  0  0
    1.3158   -9.8665    2.5649 C   0  0  0  0  0  0  0  0  0  0  0  0
    0.2257   -6.2372    5.7867 H   0  0  0  0  0  0  0  0  0  0  0  0
   -1.5417   -6.2549    5.6567 H   0  0  0  0  0  0  0  0  0  0  0  0
   -0.5810   -5.1951    4.6074 H   0  0  0  0  0  0  0  0  0  0  0  0
   -1.7052   -8.9009    1.6857 H   0  0  0  0  0  0  0  0  0  0  0  0
    2.4429   -7.3620    4.4278 H   0  0  0  0  0  0  0  0  0  0  0  0
    1.6508   -8.4944    5.5340 H   0  0  0  0  0  0  0  0  0  0  0  0
    3.1869   -8.8934    3.0169 H   0  0  0  0  0  0  0  0  0  0  0  0
    3.1742   -9.7812    6.4094 H   0  0  0  0  0  0  0  0  0  0  0  0
    5.1244  -11.6087    6.6455 H   0  0  0  0  0  0  0  0  0  0  0  0
    3.4230  -12.0314    6.7831 H   0  0  0  0  0  0  0  0  0  0  0  0
    5.2052  -12.9456    4.6608 H   0  0  0  0  0  0  0  0  0  0  0  0
    3.4998  -13.3083    4.9053 H   0  0  0  0  0  0  0  0  0  0  0  0
    3.2699  -12.0559    2.8946 H   0  0  0  0  0  0  0  0  0  0  0  0
    5.7198  -11.5568    2.6082 H   0  0  0  0  0  0  0  0  0  0  0  0
    4.7693  -10.1809    2.2724 H   0  0  0  0  0  0  0  0  0  0  0  0
    6.4214  -10.8311    4.7409 H   0  0  0  0  0  0  0  0  0  0  0  0
    9.6753   -7.7538    3.2055 H   0  0  0  0  0  0  0  0  0  0  0  0
    5.8947   -6.0534    0.5848 H   0  0  0  0  0  0  0  0  0  0  0  0
    4.6304   -8.3998    4.8539 H   0  0  0  0  0  0  0  0  0  0  0  0
    5.5437   -9.1367    6.1280 H   0  0  0  0  0  0  0  0  0  0  0  0
    0.9899  -10.8991    2.7018 H   0  0  0  0  0  0  0  0  0  0  0  0
    1.6924   -9.7771    1.5415 H   0  0  0  0  0  0  0  0  0  0  0  0
    2.1708  -11.0980    4.7411 H   0  0  0  0  0  0  0  0  0  0  0  0
  1  2  1  0
  1 26  1  0
  1 27  1  0
  1 28  1  0
  2  6  1  0
  2  3  1  0
  3  4  2  0
  4  5  1  0
  4 29  1  0
  5 25  1  0
  5  6  2  0
  6  7  1  0
  7  8  1  0
  7 30  1  0
  7 31  1  0
  8  9  1  0
  8 25  1  0
  8 32  1  6
  9 13  1  0
  9 10  1  0
  9 48  1  1
 10 24  1  0
 10 11  1  0
 10 33  1  1
 11 12  1  0
 11 34  1  0
 11 35  1  0
 12 13  1  0
 12 36  1  0
 12 37  1  0
 13 14  1  0
 13 38  1  6
 14 15  1  0
 14 39  1  0
 14 40  1  0
 15 16  1  0
 15 24  1  0
 15 41  1  1
 16 23  1  0
 16 17  1  0
 17 18  2  0
 18 19  1  0
 18 42  1  0
 19 23  1  0
 19 20  1  0
 20 21  2  0
 21 22  1  0
 21 43  1  0
 22 23  2  0
 24 44  1  0
 24 45  1  0
 25 46  1  0
 25 47  1  0
M  CHG  1   9   1
M  END
>  <i_m_ct_stereo_status>  (165) 
1

>  <s_m_source_file>  (165) 
/var/tmp/pbs.5076255.sched01/tmp5eg4wc32/41mqp692j8.sdf

>  <i_m_source_file_index>  (165) 
29

>  <i_lp_mmshare_version>  (165) 
48012

>  <i_f3d_flags>  (165) 
0

>  <s_epik_input>  (165) 
W2NIXTFubihbQ0gzXSljKGMxMilbQ0gyXVtDQEhdKFtDSDJdMilOKFtDQEBIXTM0KVtDQEhdKFtDSDJdW0NIMl0zKVtDSDJdW0NASF0oW0NIMl00KW4obltjSF01KWMobjU2KW5bY0hdbjY=

>  <s_epik_cmdline>  (165) 
J2VwaWtfcHl0aG9uJywgJy1waHQnLCAnMi4wJywgJy1waCcsICc3LjAnLCAnLXRuJywgJzgnLCAnLW1hJywgJzIwMCcsICctaW1hZScsICc8aW5maWxlLm1hZT4nLCAnLW9tYWUnLCAnPG91dGZpbGUubWFlPic=

>  <r_lp_tautomer_probability>  (165) 
1

>  <r_epik_Ionization_Penalty>  (165) 
0.00192216

>  <r_epik_Ionization_Penalty_Charging>  (165) 
0.00191709

>  <r_epik_Ionization_Penalty_Neutral>  (165) 
5.066e-06

>  <r_epik_State_Penalty>  (165) 
0.00130582

>  <r_epik_Charging_Adjusted_Penalty>  (165) 
0.00322291

>  <i_epik_Tot_Q>  (165) 
1

>  <i_epik_Tot_abs_Q>  (165) 
1

>  <s_lp_Force_Field>  (165) 
OPLS3e

>  <r_lp_Energy>  (165) 
19.0928

>  <b_lp_Chiralities_Consistent>  (165) 
1

>  <s_lp_Variant>  (165) 
48:0-1

>  <s_i_glide_gridfile>  (165) 
pfpi4k_grid

>  <i_i_glide_lignum>  (165) 
29

>  <i_i_glide_rotatable_bonds>  (165) 
2

>  <r_i_docking_score>  (165) 
-3.28914

>  <r_i_glide_ligand_efficiency>  (165) 
-0.131566

>  <r_i_glide_ligand_efficiency_sa>  (165) 
-0.384701

>  <r_i_glide_ligand_efficiency_ln>  (165) 
-0.779626

>  <r_i_glide_gscore>  (165) 
-3.28914

>  <r_i_glide_lipo>  (165) 
-0.117605

>  <r_i_glide_hbond>  (165) 
-0.0156128

>  <r_i_glide_metal>  (165) 
-0

>  <r_i_glide_rewards>  (165) 
-1.31014

>  <r_i_glide_evdw>  (165) 
-23.5108

>  <r_i_glide_ecoul>  (165) 
-5.76649

>  <r_i_glide_erotb>  (165) 
0.328536

>  <r_i_glide_esite>  (165) 
-0.13381

>  <r_i_glide_emodel>  (165) 
-35.7625

>  <r_i_glide_energy>  (165) 
-29.2773

>  <r_i_glide_einternal>  (165) 
2.64621

>  <r_i_glide_intrahb_reward>  (165) 
-0

>  <i_i_glide_confnum>  (165) 
3

>  <i_i_glide_posenum>  (165) 
21

>  <r_i_glide_eff_state_penalty>  (165) 
0

>  <ligand_id>  (165) 
48

>  <original_smiles>  (165) 
Cn1ncc2c1CC(N1C3CCC1CC(n1ncn4ncnc14)C3)C2

>  <smiles>  (165) 
[H]c1nc2n(C3([H])C([H])([H])C4([H])C([H])([H])C([H])([H])C([H])(C3([H])[H])[N+]4([H])C3([H])C([H])([H])c4c([H])nn(C([H])([H])[H])c4C3([H])[H])nc([H])n2n1

$$$$
48:0:2
     RDKit          3D

 48 53  0  0  1  0  0  0  0  0999 V2000
   -0.4020   -6.1332    5.6696 C   0  0  0  0  0  0  0  0  0  0  0  0
   -0.2516   -6.6510    4.3288 N   0  0  0  0  0  0  0  0  0  0  0  0
   -1.1821   -7.4570    3.7521 N   0  0  0  0  0  0  0  0  0  0  0  0
   -0.6958   -7.7817    2.5482 C   0  0  0  0  0  0  0  0  0  0  0  0
    0.5388   -7.1091    2.3179 C   0  0  0  0  0  0  0  0  0  0  0  0
    0.7684   -6.4351    3.4462 C   0  0  0  0  0  0  0  0  0  0  0  0
    2.0198   -5.6810    3.4878 C   0  0  0  0  0  0  0  0  0  0  0  0
    2.5808   -5.9431    2.0512 C   0  0  1  0  0  0  0  0  0  0  0  0
    4.0050   -6.3947    2.0691 N   0  0  2  0  0  0  0  0  0  0  0  0
    4.9791   -5.5446    2.7891 C   0  0  1  0  0  0  0  0  0  0  0  0
    6.3055   -6.2670    2.5428 C   0  0  0  0  0  0  0  0  0  0  0  0
    6.0947   -6.9830    1.1988 C   0  0  0  0  0  0  0  0  0  0  0  0
    4.6627   -6.6196    0.7704 C   0  0  2  0  0  0  0  0  0  0  0  0
    4.6317   -5.3195   -0.0703 C   0  0  0  0  0  0  0  0  0  0  0  0
    5.3213   -4.1322    0.6528 C   0  0  1  0  0  0  0  0  0  0  0  0
    4.9849   -2.8331    0.0772 N   0  0  0  0  0  0  0  0  0  0  0  0
    4.9598   -1.6675    0.7740 N   0  0  0  0  0  0  0  0  0  0  0  0
    4.6164   -0.7529   -0.1701 C   0  0  0  0  0  0  0  0  0  0  0  0
    4.5077   -1.3365   -1.3738 N   0  0  0  0  0  0  0  0  0  0  0  0
    4.2275   -0.9226   -2.6122 N   0  0  0  0  0  0  0  0  0  0  0  0
    4.3176   -2.1233   -3.2056 C   0  0  0  0  0  0  0  0  0  0  0  0
    4.6699   -3.1859   -2.4036 N   0  0  0  0  0  0  0  0  0  0  0  0
    4.7519   -2.6238   -1.2369 C   0  0  0  0  0  0  0  0  0  0  0  0
    4.9970   -4.1302    2.1745 C   0  0  0  0  0  0  0  0  0  0  0  0
    1.6258   -6.9583    1.3197 C   0  0  0  0  0  0  0  0  0  0  0  0
    0.5051   -5.6090    5.9747 H   0  0  0  0  0  0  0  0  0  0  0  0
   -0.5808   -6.9466    6.3681 H   0  0  0  0  0  0  0  0  0  0  0  0
   -1.2387   -5.4417    5.6996 H   0  0  0  0  0  0  0  0  0  0  0  0
   -1.2445   -8.4595    1.9092 H   0  0  0  0  0  0  0  0  0  0  0  0
    1.8279   -4.6208    3.6610 H   0  0  0  0  0  0  0  0  0  0  0  0
    2.6441   -6.0480    4.2973 H   0  0  0  0  0  0  0  0  0  0  0  0
    2.4568   -4.9918    1.5296 H   0  0  0  0  0  0  0  0  0  0  0  0
    4.7744   -5.4793    3.8578 H   0  0  0  0  0  0  0  0  0  0  0  0
    7.1512   -5.5804    2.5222 H   0  0  0  0  0  0  0  0  0  0  0  0
    6.4933   -6.9948    3.3312 H   0  0  0  0  0  0  0  0  0  0  0  0
    6.8429   -6.6645    0.4787 H   0  0  0  0  0  0  0  0  0  0  0  0
    6.1877   -8.0624    1.3277 H   0  0  0  0  0  0  0  0  0  0  0  0
    4.2039   -7.4409    0.2142 H   0  0  0  0  0  0  0  0  0  0  0  0
    5.1142   -5.5123   -1.0268 H   0  0  0  0  0  0  0  0  0  0  0  0
    3.6051   -5.0657   -0.3352 H   0  0  0  0  0  0  0  0  0  0  0  0
    6.3985   -4.2489    0.5376 H   0  0  0  0  0  0  0  0  0  0  0  0
    4.4450    0.3088   -0.0564 H   0  0  0  0  0  0  0  0  0  0  0  0
    4.1435   -2.2229   -4.2704 H   0  0  0  0  0  0  0  0  0  0  0  0
    4.0331   -3.6525    2.3483 H   0  0  0  0  0  0  0  0  0  0  0  0
    5.7194   -3.5108    2.7051 H   0  0  0  0  0  0  0  0  0  0  0  0
    2.0940   -7.9165    1.1001 H   0  0  0  0  0  0  0  0  0  0  0  0
    1.2642   -6.5416    0.3747 H   0  0  0  0  0  0  0  0  0  0  0  0
    4.0228   -7.2877    2.5477 H   0  0  0  0  0  0  0  0  0  0  0  0
  1  2  1  0
  1 26  1  0
  1 27  1  0
  1 28  1  0
  2  6  1  0
  2  3  1  0
  3  4  2  0
  4  5  1  0
  4 29  1  0
  5 25  1  0
  5  6  2  0
  6  7  1  0
  7  8  1  0
  7 30  1  0
  7 31  1  0
  8  9  1  0
  8 25  1  0
  8 32  1  6
  9 13  1  0
  9 10  1  0
  9 48  1  1
 10 24  1  0
 10 11  1  0
 10 33  1  1
 11 12  1  0
 11 34  1  0
 11 35  1  0
 12 13  1  0
 12 36  1  0
 12 37  1  0
 13 14  1  0
 13 38  1  6
 14 15  1  0
 14 39  1  0
 14 40  1  0
 15 16  1  0
 15 24  1  0
 15 41  1  1
 16 23  1  0
 16 17  1  0
 17 18  2  0
 18 19  1  0
 18 42  1  0
 19 23  1  0
 19 20  1  0
 20 21  2  0
 21 22  1  0
 21 43  1  0
 22 23  2  0
 24 44  1  0
 24 45  1  0
 25 46  1  0
 25 47  1  0
M  CHG  1   9   1
M  END
>  <i_m_ct_stereo_status>  (166) 
1

>  <s_m_source_file>  (166) 
/var/tmp/pbs.5076255.sched01/tmp5eg4wc32/41mqp692j8.sdf

>  <i_m_source_file_index>  (166) 
29

>  <i_lp_mmshare_version>  (166) 
48012

>  <i_f3d_flags>  (166) 
0

>  <s_epik_input>  (166) 
W2NIXTFubihbQ0gzXSljKGMxMilbQ0gyXVtDQEhdKFtDSDJdMilOKFtDQEBIXTM0KVtDQEhdKFtDSDJdW0NIMl0zKVtDSDJdW0NASF0oW0NIMl00KW4obltjSF01KWMobjU2KW5bY0hdbjY=

>  <s_epik_cmdline>  (166) 
J2VwaWtfcHl0aG9uJywgJy1waHQnLCAnMi4wJywgJy1waCcsICc3LjAnLCAnLXRuJywgJzgnLCAnLW1hJywgJzIwMCcsICctaW1hZScsICc8aW5maWxlLm1hZT4nLCAnLW9tYWUnLCAnPG91dGZpbGUubWFlPic=

>  <r_lp_tautomer_probability>  (166) 
1

>  <r_epik_Ionization_Penalty>  (166) 
0.00192216

>  <r_epik_Ionization_Penalty_Charging>  (166) 
0.00191709

>  <r_epik_Ionization_Penalty_Neutral>  (166) 
5.066e-06

>  <r_epik_State_Penalty>  (166) 
0.00130582

>  <r_epik_Charging_Adjusted_Penalty>  (166) 
0.00322291

>  <i_epik_Tot_Q>  (166) 
1

>  <i_epik_Tot_abs_Q>  (166) 
1

>  <s_lp_Force_Field>  (166) 
OPLS3e

>  <r_lp_Energy>  (166) 
19.0928

>  <b_lp_Chiralities_Consistent>  (166) 
1

>  <s_lp_Variant>  (166) 
48:0-1

>  <s_i_glide_gridfile>  (166) 
pfpi4k_grid

>  <i_i_glide_lignum>  (166) 
29

>  <i_i_glide_rotatable_bonds>  (166) 
2

>  <r_i_docking_score>  (166) 
-2.99607

>  <r_i_glide_ligand_efficiency>  (166) 
-0.119843

>  <r_i_glide_ligand_efficiency_sa>  (166) 
-0.350423

>  <r_i_glide_ligand_efficiency_ln>  (166) 
-0.710159

>  <r_i_glide_gscore>  (166) 
-2.99607

>  <r_i_glide_lipo>  (166) 
-0.302085

>  <r_i_glide_hbond>  (166) 
0

>  <r_i_glide_metal>  (166) 
-0

>  <r_i_glide_rewards>  (166) 
-1.28279

>  <r_i_glide_evdw>  (166) 
-29.4564

>  <r_i_glide_ecoul>  (166) 
-1.09962

>  <r_i_glide_erotb>  (166) 
0.328536

>  <r_i_glide_esite>  (166) 
-0.101977

>  <r_i_glide_emodel>  (166) 
-36.8976

>  <r_i_glide_energy>  (166) 
-30.556

>  <r_i_glide_einternal>  (166) 
1.7876

>  <r_i_glide_intrahb_reward>  (166) 
-0

>  <i_i_glide_confnum>  (166) 
2

>  <i_i_glide_posenum>  (166) 
28

>  <r_i_glide_eff_state_penalty>  (166) 
0

>  <ligand_id>  (166) 
48

>  <original_smiles>  (166) 
Cn1ncc2c1CC(N1C3CCC1CC(n1ncn4ncnc14)C3)C2

>  <smiles>  (166) 
[H]c1nc2n(C3([H])C([H])([H])C4([H])C([H])([H])C([H])([H])C([H])(C3([H])[H])[N+]4([H])C3([H])C([H])([H])c4c([H])nn(C([H])([H])[H])c4C3([H])[H])nc([H])n2n1

$$$$
48:1:0
     RDKit          3D

 48 53  0  0  1  0  0  0  0  0999 V2000
   -1.8503    1.5759    4.0273 C   0  0  0  0  0  0  0  0  0  0  0  0
   -0.5366    2.1459    3.8589 N   0  0  0  0  0  0  0  0  0  0  0  0
   -0.3222    3.4890    3.9101 N   0  0  0  0  0  0  0  0  0  0  0  0
    0.9874    3.6514    3.6818 C   0  0  0  0  0  0  0  0  0  0  0  0
    1.6301    2.3922    3.5369 C   0  0  0  0  0  0  0  0  0  0  0  0
    0.6483    1.4986    3.6457 C   0  0  0  0  0  0  0  0  0  0  0  0
    1.0372    0.1023    3.4930 C   0  0  0  0  0  0  0  0  0  0  0  0
    2.5852    0.2435    3.3221 C   0  0  1  0  0  0  0  0  0  0  0  0
    3.1198   -0.5531    2.1804 N   0  0  1  0  0  0  0  0  0  0  0  0
    4.5952   -0.5310    2.0783 C   0  0  1  0  0  0  0  0  0  0  0  0
    5.0564   -1.5368    3.1404 C   0  0  0  0  0  0  0  0  0  0  0  0
    3.8776   -2.5194    3.2704 C   0  0  0  0  0  0  0  0  0  0  0  0
    2.8344   -2.0037    2.2648 C   0  0  2  0  0  0  0  0  0  0  0  0
    3.0173   -2.6143    0.8570 C   0  0  0  0  0  0  0  0  0  0  0  0
    4.4515   -2.3811    0.3288 C   0  0  1  0  0  0  0  0  0  0  0  0
    4.5684   -2.7178   -1.0716 N   0  0  0  0  0  0  0  0  0  0  0  0
    5.0079   -3.9070   -1.5570 N   0  0  0  0  0  0  0  0  0  0  0  0
    4.8858   -3.7546   -2.8946 C   0  0  0  0  0  0  0  0  0  0  0  0
    4.3981   -2.5447   -3.1996 N   0  0  0  0  0  0  0  0  0  0  0  0
    4.1017   -1.8801   -4.3208 N   0  0  0  0  0  0  0  0  0  0  0  0
    3.6779   -0.7470   -3.7382 C   0  0  0  0  0  0  0  0  0  0  0  0
    3.7438   -0.7100   -2.3594 N   0  0  0  0  0  0  0  0  0  0  0  0
    4.1987   -1.8990   -2.0702 C   0  0  0  0  0  0  0  0  0  0  0  0
    4.9847   -0.9621    0.6548 C   0  0  0  0  0  0  0  0  0  0  0  0
    2.9510    1.7705    3.2672 C   0  0  0  0  0  0  0  0  0  0  0  0
   -1.8057    0.5076    3.8259 H   0  0  0  0  0  0  0  0  0  0  0  0
   -2.5500    2.0423    3.3339 H   0  0  0  0  0  0  0  0  0  0  0  0
   -2.1837    1.7303    5.0508 H   0  0  0  0  0  0  0  0  0  0  0  0
    1.4048    4.6478    3.6348 H   0  0  0  0  0  0  0  0  0  0  0  0
    0.7905   -0.4726    4.3887 H   0  0  0  0  0  0  0  0  0  0  0  0
    0.5226   -0.3467    2.6421 H   0  0  0  0  0  0  0  0  0  0  0  0
    3.0059   -0.1086    4.2702 H   0  0  0  0  0  0  0  0  0  0  0  0
    5.0169    0.4560    2.2521 H   0  0  0  0  0  0  0  0  0  0  0  0
    5.9918   -2.0249    2.8708 H   0  0  0  0  0  0  0  0  0  0  0  0
    5.2203   -1.0176    4.0839 H   0  0  0  0  0  0  0  0  0  0  0  0
    4.1637   -3.5548    3.0869 H   0  0  0  0  0  0  0  0  0  0  0  0
    3.4701   -2.4737    4.2796 H   0  0  0  0  0  0  0  0  0  0  0  0
    1.8207   -2.2321    2.5931 H   0  0  0  0  0  0  0  0  0  0  0  0
    2.7903   -3.6824    0.8836 H   0  0  0  0  0  0  0  0  0  0  0  0
    2.2826   -2.1811    0.1767 H   0  0  0  0  0  0  0  0  0  0  0  0
    5.0926   -3.0822    0.8608 H   0  0  0  0  0  0  0  0  0  0  0  0
    5.1153   -4.4402   -3.6967 H   0  0  0  0  0  0  0  0  0  0  0  0
    3.3411    0.0887   -4.3302 H   0  0  0  0  0  0  0  0  0  0  0  0
    4.5813   -0.1984   -0.0111 H   0  0  0  0  0  0  0  0  0  0  0  0
    6.0679   -0.9333    0.5226 H   0  0  0  0  0  0  0  0  0  0  0  0
    3.3526    2.0840    2.3040 H   0  0  0  0  0  0  0  0  0  0  0  0
    3.6874    2.0168    4.0370 H   0  0  0  0  0  0  0  0  0  0  0  0
    2.7129   -0.1936    1.3251 H   0  0  0  0  0  0  0  0  0  0  0  0
  1  2  1  0
  1 26  1  0
  1 27  1  0
  1 28  1  0
  2  6  1  0
  2  3  1  0
  3  4  2  0
  4  5  1  0
  4 29  1  0
  5 25  1  0
  5  6  2  0
  6  7  1  0
  7  8  1  0
  7 30  1  0
  7 31  1  0
  8  9  1  0
  8 25  1  0
  8 32  1  1
  9 13  1  0
  9 10  1  0
  9 48  1  6
 10 24  1  0
 10 11  1  0
 10 33  1  1
 11 12  1  0
 11 34  1  0
 11 35  1  0
 12 13  1  0
 12 36  1  0
 12 37  1  0
 13 14  1  0
 13 38  1  1
 14 15  1  0
 14 39  1  0
 14 40  1  0
 15 16  1  0
 15 24  1  0
 15 41  1  1
 16 23  1  0
 16 17  1  0
 17 18  2  0
 18 19  1  0
 18 42  1  0
 19 23  1  0
 19 20  1  0
 20 21  2  0
 21 22  1  0
 21 43  1  0
 22 23  2  0
 24 44  1  0
 24 45  1  0
 25 46  1  0
 25 47  1  0
M  CHG  1   9   1
M  END
>  <i_m_ct_stereo_status>  (167) 
1

>  <s_m_source_file>  (167) 
/var/tmp/pbs.5076255.sched01/tmp5eg4wc32/41mqp692j8.sdf

>  <i_m_source_file_index>  (167) 
30

>  <i_lp_mmshare_version>  (167) 
48012

>  <i_f3d_flags>  (167) 
0

>  <s_epik_input>  (167) 
W2NIXTFubihbQ0gzXSljKGMxMilbQ0gyXVtDQEhdKFtDSDJdMilOKFtDQEBIXTM0KVtDQEhdKFtDSDJdW0NIMl0zKVtDSDJdW0NASF0oW0NIMl00KW4obltjSF01KWMobjU2KW5bY0hdbjY=

>  <s_epik_cmdline>  (167) 
J2VwaWtfcHl0aG9uJywgJy1waHQnLCAnMi4wJywgJy1waCcsICc3LjAnLCAnLXRuJywgJzgnLCAnLW1hJywgJzIwMCcsICctaW1hZScsICc8aW5maWxlLm1hZT4nLCAnLW9tYWUnLCAnPG91dGZpbGUubWFlPic=

>  <r_lp_tautomer_probability>  (167) 
1

>  <r_epik_Ionization_Penalty>  (167) 
0.00192216

>  <r_epik_Ionization_Penalty_Charging>  (167) 
0.00191709

>  <r_epik_Ionization_Penalty_Neutral>  (167) 
5.066e-06

>  <r_epik_State_Penalty>  (167) 
0.00130582

>  <r_epik_Charging_Adjusted_Penalty>  (167) 
0.00322291

>  <i_epik_Tot_Q>  (167) 
1

>  <i_epik_Tot_abs_Q>  (167) 
1

>  <s_lp_Force_Field>  (167) 
OPLS3e

>  <r_lp_Energy>  (167) 
18.492

>  <b_lp_Chiralities_Consistent>  (167) 
1

>  <s_lp_Variant>  (167) 
48:0-2

>  <s_i_glide_gridfile>  (167) 
pfpi4k_grid

>  <i_i_glide_lignum>  (167) 
30

>  <i_i_glide_rotatable_bonds>  (167) 
2

>  <r_i_docking_score>  (167) 
-4.31608

>  <r_i_glide_ligand_efficiency>  (167) 
-0.172643

>  <r_i_glide_ligand_efficiency_sa>  (167) 
-0.504811

>  <r_i_glide_ligand_efficiency_ln>  (167) 
-1.02304

>  <r_i_glide_gscore>  (167) 
-4.31608

>  <r_i_glide_lipo>  (167) 
-0.289866

>  <r_i_glide_hbond>  (167) 
-0.32

>  <r_i_glide_metal>  (167) 
-0

>  <r_i_glide_rewards>  (167) 
-1.6375

>  <r_i_glide_evdw>  (167) 
-27.2002

>  <r_i_glide_ecoul>  (167) 
-6.42141

>  <r_i_glide_erotb>  (167) 
0.328536

>  <r_i_glide_esite>  (167) 
-0.0740252

>  <r_i_glide_emodel>  (167) 
-43.3406

>  <r_i_glide_energy>  (167) 
-33.6216

>  <r_i_glide_einternal>  (167) 
1.18958

>  <r_i_glide_intrahb_reward>  (167) 
-0

>  <i_i_glide_confnum>  (167) 
3

>  <i_i_glide_posenum>  (167) 
34

>  <r_i_glide_eff_state_penalty>  (167) 
0

>  <ligand_id>  (167) 
48

>  <original_smiles>  (167) 
Cn1ncc2c1CC(N1C3CCC1CC(n1ncn4ncnc14)C3)C2

>  <smiles>  (167) 
[H]c1nc2n(C3([H])C([H])([H])C4([H])C([H])([H])C([H])([H])C([H])(C3([H])[H])[N+]4([H])C3([H])C([H])([H])c4c([H])nn(C([H])([H])[H])c4C3([H])[H])nc([H])n2n1

$$$$
48:1:1
     RDKit          3D

 48 53  0  0  1  0  0  0  0  0999 V2000
   -2.0817    2.3936    2.8974 C   0  0  0  0  0  0  0  0  0  0  0  0
   -0.7264    2.6504    3.3288 N   0  0  0  0  0  0  0  0  0  0  0  0
   -0.3258    3.8898    3.7332 N   0  0  0  0  0  0  0  0  0  0  0  0
    0.9786    3.7690    4.0029 C   0  0  0  0  0  0  0  0  0  0  0  0
    1.4063    2.4264    3.8425 C   0  0  0  0  0  0  0  0  0  0  0  0
    0.3144    1.7764    3.4138 C   0  0  0  0  0  0  0  0  0  0  0  0
    0.5038    0.3550    3.1335 C   0  0  0  0  0  0  0  0  0  0  0  0
    1.9966    0.1623    3.5587 C   0  0  1  0  0  0  0  0  0  0  0  0
    2.7899   -0.6021    2.5558 N   0  0  1  0  0  0  0  0  0  0  0  0
    4.2097   -0.8064    2.9162 C   0  0  1  0  0  0  0  0  0  0  0  0
    4.1627   -1.9721    3.9154 C   0  0  0  0  0  0  0  0  0  0  0  0
    2.8987   -2.7648    3.5294 C   0  0  0  0  0  0  0  0  0  0  0  0
    2.3166   -1.9860    2.3440 C   0  0  2  0  0  0  0  0  0  0  0  0
    2.8860   -2.4763    1.0074 C   0  0  0  0  0  0  0  0  0  0  0  0
    4.4331   -2.4417    0.9585 C   0  0  1  0  0  0  0  0  0  0  0  0
    4.9951   -2.5789   -0.3773 N   0  0  0  0  0  0  0  0  0  0  0  0
    6.3282   -2.5398   -0.6588 N   0  0  0  0  0  0  0  0  0  0  0  0
    6.3714   -2.7207   -1.9993 C   0  0  0  0  0  0  0  0  0  0  0  0
    5.1331   -2.8571   -2.4990 N   0  0  0  0  0  0  0  0  0  0  0  0
    4.6108   -3.0237   -3.7143 N   0  0  0  0  0  0  0  0  0  0  0  0
    3.3231   -3.0601   -3.3435 C   0  0  0  0  0  0  0  0  0  0  0  0
    3.0779   -2.9321   -1.9854 N   0  0  0  0  0  0  0  0  0  0  0  0
    4.2747   -2.7888   -1.5018 C   0  0  0  0  0  0  0  0  0  0  0  0
    4.9806   -1.1606    1.6282 C   0  0  0  0  0  0  0  0  0  0  0  0
    2.6038    1.5613    3.9343 C   0  0  0  0  0  0  0  0  0  0  0  0
   -2.1420    1.3798    2.5031 H   0  0  0  0  0  0  0  0  0  0  0  0
   -2.3651    3.0929    2.1131 H   0  0  0  0  0  0  0  0  0  0  0  0
   -2.7521    2.4876    3.7483 H   0  0  0  0  0  0  0  0  0  0  0  0
    1.5469    4.6418    4.3010 H   0  0  0  0  0  0  0  0  0  0  0  0
   -0.1675   -0.2543    3.7435 H   0  0  0  0  0  0  0  0  0  0  0  0
    0.2964    0.1314    2.0864 H   0  0  0  0  0  0  0  0  0  0  0  0
    1.9507   -0.3809    4.5065 H   0  0  0  0  0  0  0  0  0  0  0  0
    4.6987    0.0694    3.3471 H   0  0  0  0  0  0  0  0  0  0  0  0
    5.0717   -2.5727    3.8982 H   0  0  0  0  0  0  0  0  0  0  0  0
    4.0525   -1.5739    4.9222 H   0  0  0  0  0  0  0  0  0  0  0  0
    3.1079   -3.8054    3.2823 H   0  0  0  0  0  0  0  0  0  0  0  0
    2.1850   -2.7622    4.3524 H   0  0  0  0  0  0  0  0  0  0  0  0
    1.2291   -2.0596    2.2908 H   0  0  0  0  0  0  0  0  0  0  0  0
    2.5184   -3.4788    0.7837 H   0  0  0  0  0  0  0  0  0  0  0  0
    2.4819   -1.8108    0.2538 H   0  0  0  0  0  0  0  0  0  0  0  0
    4.7910   -3.2979    1.5272 H   0  0  0  0  0  0  0  0  0  0  0  0
    7.2134   -2.7499   -2.6732 H   0  0  0  0  0  0  0  0  0  0  0  0
    2.5317   -3.1949   -4.0607 H   0  0  0  0  0  0  0  0  0  0  0  0
    4.9205   -0.3183    0.9310 H   0  0  0  0  0  0  0  0  0  0  0  0
    6.0408   -1.2813    1.8633 H   0  0  0  0  0  0  0  0  0  0  0  0
    3.3892    1.9119    3.2644 H   0  0  0  0  0  0  0  0  0  0  0  0
    3.0177    1.5356    4.9465 H   0  0  0  0  0  0  0  0  0  0  0  0
    2.7388   -0.1027    1.6767 H   0  0  0  0  0  0  0  0  0  0  0  0
  1  2  1  0
  1 26  1  0
  1 27  1  0
  1 28  1  0
  2  6  1  0
  2  3  1  0
  3  4  2  0
  4  5  1  0
  4 29  1  0
  5 25  1  0
  5  6  2  0
  6  7  1  0
  7  8  1  0
  7 30  1  0
  7 31  1  0
  8  9  1  0
  8 25  1  0
  8 32  1  1
  9 13  1  0
  9 10  1  0
  9 48  1  6
 10 24  1  0
 10 11  1  0
 10 33  1  1
 11 12  1  0
 11 34  1  0
 11 35  1  0
 12 13  1  0
 12 36  1  0
 12 37  1  0
 13 14  1  0
 13 38  1  6
 14 15  1  0
 14 39  1  0
 14 40  1  0
 15 16  1  0
 15 24  1  0
 15 41  1  1
 16 23  1  0
 16 17  1  0
 17 18  2  0
 18 19  1  0
 18 42  1  0
 19 23  1  0
 19 20  1  0
 20 21  2  0
 21 22  1  0
 21 43  1  0
 22 23  2  0
 24 44  1  0
 24 45  1  0
 25 46  1  0
 25 47  1  0
M  CHG  1   9   1
M  END
>  <i_m_ct_stereo_status>  (168) 
1

>  <s_m_source_file>  (168) 
/var/tmp/pbs.5076255.sched01/tmp5eg4wc32/41mqp692j8.sdf

>  <i_m_source_file_index>  (168) 
30

>  <i_lp_mmshare_version>  (168) 
48012

>  <i_f3d_flags>  (168) 
0

>  <s_epik_input>  (168) 
W2NIXTFubihbQ0gzXSljKGMxMilbQ0gyXVtDQEhdKFtDSDJdMilOKFtDQEBIXTM0KVtDQEhdKFtDSDJdW0NIMl0zKVtDSDJdW0NASF0oW0NIMl00KW4obltjSF01KWMobjU2KW5bY0hdbjY=

>  <s_epik_cmdline>  (168) 
J2VwaWtfcHl0aG9uJywgJy1waHQnLCAnMi4wJywgJy1waCcsICc3LjAnLCAnLXRuJywgJzgnLCAnLW1hJywgJzIwMCcsICctaW1hZScsICc8aW5maWxlLm1hZT4nLCAnLW9tYWUnLCAnPG91dGZpbGUubWFlPic=

>  <r_lp_tautomer_probability>  (168) 
1

>  <r_epik_Ionization_Penalty>  (168) 
0.00192216

>  <r_epik_Ionization_Penalty_Charging>  (168) 
0.00191709

>  <r_epik_Ionization_Penalty_Neutral>  (168) 
5.066e-06

>  <r_epik_State_Penalty>  (168) 
0.00130582

>  <r_epik_Charging_Adjusted_Penalty>  (168) 
0.00322291

>  <i_epik_Tot_Q>  (168) 
1

>  <i_epik_Tot_abs_Q>  (168) 
1

>  <s_lp_Force_Field>  (168) 
OPLS3e

>  <r_lp_Energy>  (168) 
18.492

>  <b_lp_Chiralities_Consistent>  (168) 
1

>  <s_lp_Variant>  (168) 
48:0-2

>  <s_i_glide_gridfile>  (168) 
pfpi4k_grid

>  <i_i_glide_lignum>  (168) 
30

>  <i_i_glide_rotatable_bonds>  (168) 
2

>  <r_i_docking_score>  (168) 
-3.61741

>  <r_i_glide_ligand_efficiency>  (168) 
-0.144697

>  <r_i_glide_ligand_efficiency_sa>  (168) 
-0.423095

>  <r_i_glide_ligand_efficiency_ln>  (168) 
-0.857435

>  <r_i_glide_gscore>  (168) 
-3.61741

>  <r_i_glide_lipo>  (168) 
-0.135278

>  <r_i_glide_hbond>  (168) 
0

>  <r_i_glide_metal>  (168) 
-0

>  <r_i_glide_rewards>  (168) 
-1.51564

>  <r_i_glide_evdw>  (168) 
-28.038

>  <r_i_glide_ecoul>  (168) 
-5.2534

>  <r_i_glide_erotb>  (168) 
0.328536

>  <r_i_glide_esite>  (168) 
-0.105121

>  <r_i_glide_emodel>  (168) 
-40.6233

>  <r_i_glide_energy>  (168) 
-33.2914

>  <r_i_glide_einternal>  (168) 
2.4968

>  <r_i_glide_intrahb_reward>  (168) 
-0

>  <i_i_glide_confnum>  (168) 
2

>  <i_i_glide_posenum>  (168) 
38

>  <r_i_glide_eff_state_penalty>  (168) 
0

>  <ligand_id>  (168) 
48

>  <original_smiles>  (168) 
Cn1ncc2c1CC(N1C3CCC1CC(n1ncn4ncnc14)C3)C2

>  <smiles>  (168) 
[H]c1nc2n(C3([H])C([H])([H])C4([H])C([H])([H])C([H])([H])C([H])(C3([H])[H])[N+]4([H])C3([H])C([H])([H])c4c([H])nn(C([H])([H])[H])c4C3([H])[H])nc([H])n2n1

$$$$
48:1:2
     RDKit          3D

 48 53  0  0  1  0  0  0  0  0999 V2000
   -2.5488    2.4009    4.2227 C   0  0  0  0  0  0  0  0  0  0  0  0
   -1.2137    2.9055    4.0136 N   0  0  0  0  0  0  0  0  0  0  0  0
   -0.9602    4.2387    3.9119 N   0  0  0  0  0  0  0  0  0  0  0  0
    0.3586    4.3318    3.6897 C   0  0  0  0  0  0  0  0  0  0  0  0
    0.9677    3.0474    3.7107 C   0  0  0  0  0  0  0  0  0  0  0  0
   -0.0468    2.2029    3.9090 C   0  0  0  0  0  0  0  0  0  0  0  0
    0.3087    0.7811    3.9280 C   0  0  0  0  0  0  0  0  0  0  0  0
    1.8639    0.8671    3.7690 C   0  0  1  0  0  0  0  0  0  0  0  0
    2.3916   -0.0889    2.7523 N   0  0  1  0  0  0  0  0  0  0  0  0
    3.8609   -0.0879    2.6089 C   0  0  1  0  0  0  0  0  0  0  0  0
    4.3448   -0.9267    3.8078 C   0  0  0  0  0  0  0  0  0  0  0  0
    3.1748   -1.8822    4.1090 C   0  0  0  0  0  0  0  0  0  0  0  0
    2.1163   -1.5102    3.0649 C   0  0  2  0  0  0  0  0  0  0  0  0
    2.2864   -2.3147    1.7769 C   0  0  0  0  0  0  0  0  0  0  0  0
    3.7069   -2.1862    1.1546 C   0  0  1  0  0  0  0  0  0  0  0  0
    3.6964   -2.6787   -0.2160 N   0  0  0  0  0  0  0  0  0  0  0  0
    2.6103   -3.1312   -0.8859 N   0  0  0  0  0  0  0  0  0  0  0  0
    3.0914   -3.4266   -2.1151 C   0  0  0  0  0  0  0  0  0  0  0  0
    4.4091   -3.2246   -2.1530 N   0  0  0  0  0  0  0  0  0  0  0  0
    5.3526   -3.4055   -3.0709 N   0  0  0  0  0  0  0  0  0  0  0  0
    6.3838   -3.0113   -2.3121 C   0  0  0  0  0  0  0  0  0  0  0  0
    6.0810   -2.5703   -1.0263 N   0  0  0  0  0  0  0  0  0  0  0  0
    4.8006   -2.7651   -0.9817 C   0  0  0  0  0  0  0  0  0  0  0  0
    4.2221   -0.7317    1.2514 C   0  0  0  0  0  0  0  0  0  0  0  0
    2.2714    2.3648    3.5233 C   0  0  0  0  0  0  0  0  0  0  0  0
   -2.5354    1.3145    4.1622 H   0  0  0  0  0  0  0  0  0  0  0  0
   -3.2284    2.7832    3.4607 H   0  0  0  0  0  0  0  0  0  0  0  0
   -2.8859    2.6935    5.2151 H   0  0  0  0  0  0  0  0  0  0  0  0
    0.8092    5.3000    3.5210 H   0  0  0  0  0  0  0  0  0  0  0  0
    0.0342    0.3293    4.8834 H   0  0  0  0  0  0  0  0  0  0  0  0
   -0.2041    0.2396    3.1360 H   0  0  0  0  0  0  0  0  0  0  0  0
    2.2592    0.6310    4.7579 H   0  0  0  0  0  0  0  0  0  0  0  0
    4.2668    0.9196    2.6387 H   0  0  0  0  0  0  0  0  0  0  0  0
    5.2797   -1.4459    3.6084 H   0  0  0  0  0  0  0  0  0  0  0  0
    4.5091   -0.2748    4.6639 H   0  0  0  0  0  0  0  0  0  0  0  0
    3.4531   -2.9338    4.0567 H   0  0  0  0  0  0  0  0  0  0  0  0
    2.7750   -1.6974    5.1041 H   0  0  0  0  0  0  0  0  0  0  0  0
    1.0999   -1.6858    3.4203 H   0  0  0  0  0  0  0  0  0  0  0  0
    2.0439   -3.3667    1.9435 H   0  0  0  0  0  0  0  0  0  0  0  0
    1.5313   -1.9231    1.0975 H   0  0  0  0  0  0  0  0  0  0  0  0
    4.3819   -2.8277    1.7136 H   0  0  0  0  0  0  0  0  0  0  0  0
    2.5759   -3.8186   -2.9838 H   0  0  0  0  0  0  0  0  0  0  0  0
    7.3814   -2.9901   -2.7135 H   0  0  0  0  0  0  0  0  0  0  0  0
    3.7985   -0.1280    0.4469 H   0  0  0  0  0  0  0  0  0  0  0  0
    5.3045   -0.6969    1.1097 H   0  0  0  0  0  0  0  0  0  0  0  0
    2.6883    2.5592    2.5363 H   0  0  0  0  0  0  0  0  0  0  0  0
    3.0135    2.6790    4.2642 H   0  0  0  0  0  0  0  0  0  0  0  0
    1.9787    0.1379    1.8548 H   0  0  0  0  0  0  0  0  0  0  0  0
  1  2  1  0
  1 26  1  0
  1 27  1  0
  1 28  1  0
  2  6  1  0
  2  3  1  0
  3  4  2  0
  4  5  1  0
  4 29  1  0
  5 25  1  0
  5  6  2  0
  6  7  1  0
  7  8  1  0
  7 30  1  0
  7 31  1  0
  8  9  1  0
  8 25  1  0
  8 32  1  1
  9 13  1  0
  9 10  1  0
  9 48  1  6
 10 24  1  0
 10 11  1  0
 10 33  1  6
 11 12  1  0
 11 34  1  0
 11 35  1  0
 12 13  1  0
 12 36  1  0
 12 37  1  0
 13 14  1  0
 13 38  1  1
 14 15  1  0
 14 39  1  0
 14 40  1  0
 15 16  1  0
 15 24  1  0
 15 41  1  1
 16 23  1  0
 16 17  1  0
 17 18  2  0
 18 19  1  0
 18 42  1  0
 19 23  1  0
 19 20  1  0
 20 21  2  0
 21 22  1  0
 21 43  1  0
 22 23  2  0
 24 44  1  0
 24 45  1  0
 25 46  1  0
 25 47  1  0
M  CHG  1   9   1
M  END
>  <i_m_ct_stereo_status>  (169) 
1

>  <s_m_source_file>  (169) 
/var/tmp/pbs.5076255.sched01/tmp5eg4wc32/41mqp692j8.sdf

>  <i_m_source_file_index>  (169) 
30

>  <i_lp_mmshare_version>  (169) 
48012

>  <i_f3d_flags>  (169) 
0

>  <s_epik_input>  (169) 
W2NIXTFubihbQ0gzXSljKGMxMilbQ0gyXVtDQEhdKFtDSDJdMilOKFtDQEBIXTM0KVtDQEhdKFtDSDJdW0NIMl0zKVtDSDJdW0NASF0oW0NIMl00KW4obltjSF01KWMobjU2KW5bY0hdbjY=

>  <s_epik_cmdline>  (169) 
J2VwaWtfcHl0aG9uJywgJy1waHQnLCAnMi4wJywgJy1waCcsICc3LjAnLCAnLXRuJywgJzgnLCAnLW1hJywgJzIwMCcsICctaW1hZScsICc8aW5maWxlLm1hZT4nLCAnLW9tYWUnLCAnPG91dGZpbGUubWFlPic=

>  <r_lp_tautomer_probability>  (169) 
1

>  <r_epik_Ionization_Penalty>  (169) 
0.00192216

>  <r_epik_Ionization_Penalty_Charging>  (169) 
0.00191709

>  <r_epik_Ionization_Penalty_Neutral>  (169) 
5.066e-06

>  <r_epik_State_Penalty>  (169) 
0.00130582

>  <r_epik_Charging_Adjusted_Penalty>  (169) 
0.00322291

>  <i_epik_Tot_Q>  (169) 
1

>  <i_epik_Tot_abs_Q>  (169) 
1

>  <s_lp_Force_Field>  (169) 
OPLS3e

>  <r_lp_Energy>  (169) 
18.492

>  <b_lp_Chiralities_Consistent>  (169) 
1

>  <s_lp_Variant>  (169) 
48:0-2

>  <s_i_glide_gridfile>  (169) 
pfpi4k_grid

>  <i_i_glide_lignum>  (169) 
30

>  <i_i_glide_rotatable_bonds>  (169) 
2

>  <r_i_docking_score>  (169) 
-3.42036

>  <r_i_glide_ligand_efficiency>  (169) 
-0.136814

>  <r_i_glide_ligand_efficiency_sa>  (169) 
-0.400047

>  <r_i_glide_ligand_efficiency_ln>  (169) 
-0.810727

>  <r_i_glide_gscore>  (169) 
-3.42036

>  <r_i_glide_lipo>  (169) 
-0.118281

>  <r_i_glide_hbond>  (169) 
0

>  <r_i_glide_metal>  (169) 
-0

>  <r_i_glide_rewards>  (169) 
-1.19054

>  <r_i_glide_evdw>  (169) 
-24.0225

>  <r_i_glide_ecoul>  (169) 
-7.70147

>  <r_i_glide_erotb>  (169) 
0.328536

>  <r_i_glide_esite>  (169) 
-0.0837264

>  <r_i_glide_emodel>  (169) 
-38.8597

>  <r_i_glide_energy>  (169) 
-31.724

>  <r_i_glide_einternal>  (169) 
1.70546

>  <r_i_glide_intrahb_reward>  (169) 
-0

>  <i_i_glide_confnum>  (169) 
4

>  <i_i_glide_posenum>  (169) 
1

>  <r_i_glide_eff_state_penalty>  (169) 
0

>  <ligand_id>  (169) 
48

>  <original_smiles>  (169) 
Cn1ncc2c1CC(N1C3CCC1CC(n1ncn4ncnc14)C3)C2

>  <smiles>  (169) 
[H]c1nc2n(C3([H])C([H])([H])C4([H])C([H])([H])C([H])([H])C([H])(C3([H])[H])[N+]4([H])C3([H])C([H])([H])c4c([H])nn(C([H])([H])[H])c4C3([H])[H])nc([H])n2n1

$$$$
49:0:0
     RDKit          3D

 66 73  0  0  1  0  0  0  0  0999 V2000
    2.7812    4.3812    3.4457 C   0  0  0  0  0  0  0  0  0  0  0  0
    2.5473    3.0365    3.8344 O   0  0  0  0  0  0  0  0  0  0  0  0
    3.1283    2.6350    5.0508 C   0  0  2  0  0  0  0  0  0  0  0  0
    4.3020    1.7547    4.6638 C   0  0  2  0  0  0  0  0  0  0  0  0
    4.1750    0.7981    3.5946 O   0  0  0  0  0  0  0  0  0  0  0  0
    3.9512    0.3127    4.9165 C   0  0  2  0  0  0  0  0  0  0  0  0
    2.5365    0.3022    5.3978 C   0  0  1  0  0  0  0  0  0  0  0  0
    1.7702   -0.3068    4.3684 O   0  0  0  0  0  0  0  0  0  0  0  0
    1.7528   -0.9565    5.6568 C   0  0  2  0  0  0  0  0  0  0  0  0
    0.4002   -0.9819    6.3320 C   0  0  0  0  0  0  0  0  0  0  0  0
   -0.7647   -0.7018    5.3834 C   0  0  1  0  0  0  0  0  0  0  0  0
   -2.0031   -0.9661    5.9936 O   0  0  0  0  0  0  0  0  0  0  0  0
   -0.8174    0.7173    4.7690 C   0  0  1  0  0  0  0  0  0  0  0  0
   -1.8787    0.7972    3.6973 C   0  0  0  0  0  0  0  0  0  0  0  0
   -1.6268    1.6217    2.4253 C   0  0  0  0  0  0  0  0  0  0  0  0
   -1.6168    3.1262    2.6496 C   0  0  2  0  0  0  0  0  0  0  0  0
   -0.5301    3.5383    3.6278 C   0  0  1  0  0  0  0  0  0  0  0  0
   -0.2314    4.9001    3.4382 O   0  0  0  0  0  0  0  0  0  0  0  0
   -1.1845    3.2990    4.9820 C   0  0  2  0  0  0  0  0  0  0  0  0
   -2.7167    3.5925    4.6519 C   0  0  0  0  0  0  0  0  0  0  0  0
   -2.9143    3.7603    3.1093 C   0  0  1  0  0  0  0  0  0  0  0  0
   -3.1381    5.2178    2.5833 C   0  0  0  0  0  0  0  0  0  0  0  0
   -4.0500    3.0934    2.6305 O   0  0  0  0  0  0  0  0  0  0  0  0
   -0.7914    4.1117    6.2268 C   0  0  2  0  0  0  0  0  0  0  0  0
    0.6636    3.7723    6.5390 C   0  0  0  0  0  0  0  0  0  0  0  0
    0.7447    2.2550    6.3026 C   0  0  2  0  0  0  0  0  0  0  0  0
    2.2237    1.7250    5.9317 C   0  0  2  0  0  0  0  0  0  0  0  0
    2.9377    1.6960    7.3201 C   0  0  0  0  0  0  0  0  0  0  0  0
   -0.6978    1.9757    5.6657 C   0  0  2  0  0  0  0  0  0  0  0  0
   -1.6943    2.1014    6.8769 C   0  0  1  0  0  0  0  0  0  0  0  0
   -1.4372    1.2654    7.9815 O   0  0  0  0  0  0  0  0  0  0  0  0
   -1.6103    3.4681    7.2201 O   0  0  0  0  0  0  0  0  0  0  0  0
    2.2677    4.5616    2.4983 H   0  0  0  0  0  0  0  0  0  0  0  0
    3.8360    4.6147    3.3277 H   0  0  0  0  0  0  0  0  0  0  0  0
    2.3655    5.0849    4.1661 H   0  0  0  0  0  0  0  0  0  0  0  0
    3.4967    3.4762    5.6372 H   0  0  0  0  0  0  0  0  0  0  0  0
    5.2846    2.0311    5.0282 H   0  0  0  0  0  0  0  0  0  0  0  0
    4.6942   -0.4100    5.2470 H   0  0  0  0  0  0  0  0  0  0  0  0
    2.3149   -1.8935    5.6748 H   0  0  0  0  0  0  0  0  0  0  0  0
    0.2859   -1.9723    6.7617 H   0  0  0  0  0  0  0  0  0  0  0  0
    0.4483   -0.3044    7.1738 H   0  0  0  0  0  0  0  0  0  0  0  0
   -0.6845   -1.4052    4.5621 H   0  0  0  0  0  0  0  0  0  0  0  0
   -2.6750   -0.7814    5.3504 H   0  0  0  0  0  0  0  0  0  0  0  0
    0.0035    0.8497    4.0975 H   0  0  0  0  0  0  0  0  0  0  0  0
   -2.0476   -0.2308    3.3843 H   0  0  0  0  0  0  0  0  0  0  0  0
   -2.8064    1.1430    4.1402 H   0  0  0  0  0  0  0  0  0  0  0  0
   -0.7044    1.2840    1.9604 H   0  0  0  0  0  0  0  0  0  0  0  0
   -2.4021    1.3864    1.6960 H   0  0  0  0  0  0  0  0  0  0  0  0
   -1.3926    3.5489    1.7062 H   0  0  0  0  0  0  0  0  0  0  0  0
    0.3545    2.9355    3.4663 H   0  0  0  0  0  0  0  0  0  0  0  0
    0.1582    4.9443    2.5686 H   0  0  0  0  0  0  0  0  0  0  0  0
   -3.4614    2.8857    5.0616 H   0  0  0  0  0  0  0  0  0  0  0  0
   -2.9167    4.5066    5.1825 H   0  0  0  0  0  0  0  0  0  0  0  0
   -2.2605    5.8072    2.8088 H   0  0  0  0  0  0  0  0  0  0  0  0
   -4.0656    5.7253    2.8945 H   0  0  0  0  0  0  0  0  0  0  0  0
   -3.3098    5.3456    1.5448 H   0  0  0  0  0  0  0  0  0  0  0  0
   -3.9486    2.1648    2.7823 H   0  0  0  0  0  0  0  0  0  0  0  0
   -0.9709    5.1905    6.1741 H   0  0  0  0  0  0  0  0  0  0  0  0
    1.2849    4.3303    5.8526 H   0  0  0  0  0  0  0  0  0  0  0  0
    0.9543    4.0547    7.5521 H   0  0  0  0  0  0  0  0  0  0  0  0
    0.6566    1.8587    7.3038 H   0  0  0  0  0  0  0  0  0  0  0  0
    2.5003    0.9315    7.9671 H   0  0  0  0  0  0  0  0  0  0  0  0
    2.8683    2.6511    7.8371 H   0  0  0  0  0  0  0  0  0  0  0  0
    3.9950    1.4446    7.2631 H   0  0  0  0  0  0  0  0  0  0  0  0
   -2.7214    1.8809    6.6138 H   0  0  0  0  0  0  0  0  0  0  0  0
   -0.5717    1.4815    8.2919 H   0  0  0  0  0  0  0  0  0  0  0  0
  1  2  1  0
  1 33  1  0
  1 34  1  0
  1 35  1  0
  2  3  1  0
  3 27  1  0
  3  4  1  0
  3 36  1  1
  4  6  1  0
  4  5  1  0
  4 37  1  1
  5  6  1  0
  6  7  1  0
  6 38  1  1
  7  9  1  0
  7 27  1  0
  7  8  1  6
  8  9  1  0
  9 10  1  0
  9 39  1  6
 10 11  1  0
 10 40  1  0
 10 41  1  0
 11 12  1  0
 11 13  1  0
 11 42  1  6
 12 43  1  0
 13 29  1  0
 13 14  1  0
 13 44  1  6
 14 15  1  0
 14 45  1  0
 14 46  1  0
 15 16  1  0
 15 47  1  0
 15 48  1  0
 16 21  1  0
 16 17  1  0
 16 49  1  6
 17 18  1  0
 17 19  1  0
 17 50  1  1
 18 51  1  0
 29 19  1  6
 19 20  1  6
 19 24  1  0
 20 21  1  0
 20 52  1  0
 20 53  1  0
 21 22  1  0
 21 23  1  6
 22 54  1  0
 22 55  1  0
 22 56  1  0
 23 57  1  0
 24 32  1  0
 24 25  1  0
 24 58  1  6
 25 26  1  0
 25 59  1  0
 25 60  1  0
 26 27  1  0
 26 29  1  0
 26 61  1  1
 27 28  1  1
 28 62  1  0
 28 63  1  0
 28 64  1  0
 29 30  1  0
 30 31  1  0
 30 32  1  0
 30 65  1  6
 31 66  1  0
M  END
>  <i_m_ct_stereo_status>  (170) 
1

>  <s_m_source_file>  (170) 
/var/tmp/pbs.5076255.sched01/tmp5eg4wc32/41mqp692j8.sdf

>  <i_m_source_file_index>  (170) 
31

>  <i_lp_mmshare_version>  (170) 
48012

>  <i_f3d_flags>  (170) 
0

>  <s_epik_input>  (170) 
W0NAXTEyM1tDQEBIXTRbQ0BASF0oTzQpW0NAQEhdKE9bQ0gzXSlbQ0BAXTMoW0NIM10pW0NAQEhdNVtDQEBdNjdbQ0BAXTgoW0NASF0oW0NIMl01KU9bQ0BASF03W09IXSlbQ0BIXShbT0hdKVtDQEhdKFtDQEBdKFtDSDJdOCkoW0NIM10pW09IXSlbQ0gyXVtDSDJdW0NAQEhdNltDQEhdKFtPSF0pW0NIMl1bQ0BIXTJPMQ==

>  <s_epik_cmdline>  (170) 
J2VwaWtfcHl0aG9uJywgJy1waHQnLCAnMi4wJywgJy1waCcsICc3LjAnLCAnLXRuJywgJzgnLCAnLW1hJywgJzIwMCcsICctaW1hZScsICc8aW5maWxlLm1hZT4nLCAnLW9tYWUnLCAnPG91dGZpbGUubWFlPic=

>  <r_lp_tautomer_probability>  (170) 
1

>  <r_epik_Ionization_Penalty>  (170) 
7.26014e-07

>  <r_epik_Ionization_Penalty_Charging>  (170) 
0

>  <r_epik_Ionization_Penalty_Neutral>  (170) 
7.26014e-07

>  <r_epik_State_Penalty>  (170) 
-0

>  <r_epik_Charging_Adjusted_Penalty>  (170) 
0

>  <i_epik_Tot_Q>  (170) 
0

>  <i_epik_Tot_abs_Q>  (170) 
0

>  <s_epik_Chemistry_Notes>  (170) 
This compound contains an acetal/aminal-like group ( X-CH(R)-Y where X, Y are N, S, or O) that may be acid/base labile, releasing an aldehyde.

>  <s_lp_Force_Field>  (170) 
OPLS3e

>  <r_lp_Energy>  (170) 
123.061

>  <b_lp_Chiralities_Consistent>  (170) 
1

>  <s_lp_Variant>  (170) 
49:0-1

>  <s_i_glide_gridfile>  (170) 
pfpi4k_grid

>  <i_i_glide_lignum>  (170) 
31

>  <i_i_glide_rotatable_bonds>  (170) 
5

>  <r_i_docking_score>  (170) 
-1.75421

>  <r_i_glide_ligand_efficiency>  (170) 
-0.0548192

>  <r_i_glide_ligand_efficiency_sa>  (170) 
-0.17404

>  <r_i_glide_ligand_efficiency_ln>  (170) 
-0.392816

>  <r_i_glide_gscore>  (170) 
-1.75421

>  <r_i_glide_lipo>  (170) 
-0.0158686

>  <r_i_glide_hbond>  (170) 
-0.304903

>  <r_i_glide_metal>  (170) 
-0

>  <r_i_glide_rewards>  (170) 
-0.33735

>  <r_i_glide_evdw>  (170) 
6.38271

>  <r_i_glide_ecoul>  (170) 
-9.3525

>  <r_i_glide_erotb>  (170) 
0

>  <r_i_glide_esite>  (170) 
-0.0123511

>  <r_i_glide_emodel>  (170) 
-2.98621

>  <r_i_glide_energy>  (170) 
-2.9698

>  <r_i_glide_einternal>  (170) 
2.51035

>  <r_i_glide_intrahb_reward>  (170) 
-0

>  <i_i_glide_confnum>  (170) 
2

>  <i_i_glide_posenum>  (170) 
11

>  <r_i_glide_eff_state_penalty>  (170) 
0

>  <ligand_id>  (170) 
49

>  <original_smiles>  (170) 
COC1C2OC2C23OC2CC(O)C2CCC4C(O)C5(CC4(C)O)C4CC(C13C)C25C(O)O4

>  <smiles>  (170) 
[H]OC1([H])OC2([H])C([H])([H])C3([H])C4(C([H])([H])[H])C([H])(OC([H])([H])[H])C5([H])OC5([H])C45OC5([H])C([H])([H])C([H])(O[H])C4([H])C([H])([H])C([H])([H])C5([H])C([H])(O[H])C2(C([H])([H])C5(O[H])C([H])([H])[H])C143

$$$$
49:0:1
     RDKit          3D

 66 73  0  0  1  0  0  0  0  0999 V2000
    2.9188   -0.4180    3.1094 C   0  0  0  0  0  0  0  0  0  0  0  0
    4.0725   -0.3436    3.9066 O   0  0  0  0  0  0  0  0  0  0  0  0
    4.1070   -1.2842    4.9699 C   0  0  2  0  0  0  0  0  0  0  0  0
    4.4772   -2.6466    4.3793 C   0  0  2  0  0  0  0  0  0  0  0  0
    3.8993   -3.0065    3.1283 O   0  0  0  0  0  0  0  0  0  0  0  0
    3.2056   -3.4726    4.2907 C   0  0  2  0  0  0  0  0  0  0  0  0
    2.0803   -2.6155    4.8462 C   0  0  1  0  0  0  0  0  0  0  0  0
    1.1295   -2.3641    3.7903 O   0  0  0  0  0  0  0  0  0  0  0  0
    0.6341   -3.0393    4.9169 C   0  0  2  0  0  0  0  0  0  0  0  0
   -0.4135   -2.2625    5.6886 C   0  0  0  0  0  0  0  0  0  0  0  0
   -1.0647   -1.0557    4.9634 C   0  0  1  0  0  0  0  0  0  0  0  0
   -2.1953   -0.6097    5.6799 O   0  0  0  0  0  0  0  0  0  0  0  0
   -0.1967    0.1766    4.6179 C   0  0  1  0  0  0  0  0  0  0  0  0
   -0.8385    1.1468    3.6081 C   0  0  0  0  0  0  0  0  0  0  0  0
    0.0994    1.7857    2.5359 C   0  0  0  0  0  0  0  0  0  0  0  0
    1.1528    2.8441    3.0061 C   0  0  2  0  0  0  0  0  0  0  0  0
    2.1127    2.3878    4.0875 C   0  0  1  0  0  0  0  0  0  0  0  0
    3.4239    2.8810    4.0902 O   0  0  0  0  0  0  0  0  0  0  0  0
    1.3793    2.2144    5.3917 C   0  0  2  0  0  0  0  0  0  0  0  0
    0.5251    3.5170    5.2157 C   0  0  0  0  0  0  0  0  0  0  0  0
    0.5713    4.0249    3.7527 C   0  0  1  0  0  0  0  0  0  0  0  0
    1.4289    5.2945    3.5609 C   0  0  0  0  0  0  0  0  0  0  0  0
   -0.7113    4.4179    3.2587 O   0  0  0  0  0  0  0  0  0  0  0  0
    2.1207    2.2198    6.7172 C   0  0  2  0  0  0  0  0  0  0  0  0
    2.9494    0.9283    6.8050 C   0  0  0  0  0  0  0  0  0  0  0  0
    1.9863   -0.1576    6.2795 C   0  0  2  0  0  0  0  0  0  0  0  0
    2.7470   -1.4987    5.7251 C   0  0  2  0  0  0  0  0  0  0  0  0
    3.1304   -2.2754    7.0177 C   0  0  0  0  0  0  0  0  0  0  0  0
    0.7768    0.7816    5.7061 C   0  0  2  0  0  0  0  0  0  0  0  0
    0.0271    1.2870    6.9903 C   0  0  1  0  0  0  0  0  0  0  0  0
   -0.4340    0.2810    7.8578 O   0  0  0  0  0  0  0  0  0  0  0  0
    0.9934    2.1059    7.6064 O   0  0  0  0  0  0  0  0  0  0  0  0
    2.8478    0.3605    2.3606 H   0  0  0  0  0  0  0  0  0  0  0  0
    2.1982   -0.2735    3.8754 H   0  0  0  0  0  0  0  0  0  0  0  0
    2.5805   -1.2927    2.6427 H   0  0  0  0  0  0  0  0  0  0  0  0
    4.8892   -0.9451    5.6513 H   0  0  0  0  0  0  0  0  0  0  0  0
    5.4542   -3.0993    4.5666 H   0  0  0  0  0  0  0  0  0  0  0  0
    3.1821   -4.5554    4.3712 H   0  0  0  0  0  0  0  0  0  0  0  0
    0.4364   -4.0831    4.7092 H   0  0  0  0  0  0  0  0  0  0  0  0
   -1.1965   -2.9794    5.9123 H   0  0  0  0  0  0  0  0  0  0  0  0
   -0.0091   -1.9933    6.6563 H   0  0  0  0  0  0  0  0  0  0  0  0
   -1.4564   -1.4530    4.0311 H   0  0  0  0  0  0  0  0  0  0  0  0
   -2.6160    0.0597    5.1662 H   0  0  0  0  0  0  0  0  0  0  0  0
    0.3715   -0.2841    3.8639 H   0  0  0  0  0  0  0  0  0  0  0  0
   -1.5807    0.5876    3.0389 H   0  0  0  0  0  0  0  0  0  0  0  0
   -1.4067    1.8859    4.1481 H   0  0  0  0  0  0  0  0  0  0  0  0
    0.5927    0.9978    1.9629 H   0  0  0  0  0  0  0  0  0  0  0  0
   -0.5355    2.2758    1.7896 H   0  0  0  0  0  0  0  0  0  0  0  0
    1.7153    3.1303    2.1199 H   0  0  0  0  0  0  0  0  0  0  0  0
    2.3540    1.5316    3.7570 H   0  0  0  0  0  0  0  0  0  0  0  0
    3.8164    2.7603    3.2268 H   0  0  0  0  0  0  0  0  0  0  0  0
   -0.5018    3.4276    5.5347 H   0  0  0  0  0  0  0  0  0  0  0  0
    0.9635    4.2987    5.8324 H   0  0  0  0  0  0  0  0  0  0  0  0
    2.4399    5.1827    3.9482 H   0  0  0  0  0  0  0  0  0  0  0  0
    0.9899    6.1486    4.0744 H   0  0  0  0  0  0  0  0  0  0  0  0
    1.5146    5.5615    2.5060 H   0  0  0  0  0  0  0  0  0  0  0  0
   -0.6388    4.5199    2.3528 H   0  0  0  0  0  0  0  0  0  0  0  0
    2.7152    3.1113    6.9011 H   0  0  0  0  0  0  0  0  0  0  0  0
    3.8498    1.0373    6.1993 H   0  0  0  0  0  0  0  0  0  0  0  0
    3.2726    0.7366    7.8306 H   0  0  0  0  0  0  0  0  0  0  0  0
    1.5865   -0.5689    7.1886 H   0  0  0  0  0  0  0  0  0  0  0  0
    2.2404   -2.6457    7.5261 H   0  0  0  0  0  0  0  0  0  0  0  0
    3.6756   -1.6531    7.7215 H   0  0  0  0  0  0  0  0  0  0  0  0
    3.7527   -3.1507    6.8404 H   0  0  0  0  0  0  0  0  0  0  0  0
   -0.8685    1.8679    6.7673 H   0  0  0  0  0  0  0  0  0  0  0  0
    0.3265   -0.2086    8.1247 H   0  0  0  0  0  0  0  0  0  0  0  0
  1  2  1  0
  1 33  1  0
  1 34  1  0
  1 35  1  0
  2  3  1  0
  3 27  1  0
  3  4  1  0
  3 36  1  1
  4  6  1  0
  4  5  1  0
  4 37  1  6
  5  6  1  0
  6  7  1  0
  6 38  1  6
  7  9  1  0
  7 27  1  0
  7  8  1  6
  8  9  1  0
  9 10  1  0
  9 39  1  6
 10 11  1  0
 10 40  1  0
 10 41  1  0
 11 12  1  0
 11 13  1  0
 11 42  1  6
 12 43  1  0
 13 29  1  0
 13 14  1  0
 13 44  1  6
 14 15  1  0
 14 45  1  0
 14 46  1  0
 15 16  1  0
 15 47  1  0
 15 48  1  0
 16 21  1  0
 16 17  1  0
 16 49  1  6
 17 18  1  0
 17 19  1  0
 17 50  1  6
 18 51  1  0
 29 19  1  6
 19 20  1  1
 19 24  1  0
 20 21  1  0
 20 52  1  0
 20 53  1  0
 21 22  1  0
 21 23  1  6
 22 54  1  0
 22 55  1  0
 22 56  1  0
 23 57  1  0
 24 32  1  0
 24 25  1  0
 24 58  1  1
 25 26  1  0
 25 59  1  0
 25 60  1  0
 26 27  1  0
 26 29  1  0
 26 61  1  1
 27 28  1  1
 28 62  1  0
 28 63  1  0
 28 64  1  0
 29 30  1  0
 30 31  1  0
 30 32  1  0
 30 65  1  6
 31 66  1  0
M  END
>  <i_m_ct_stereo_status>  (171) 
1

>  <s_m_source_file>  (171) 
/var/tmp/pbs.5076255.sched01/tmp5eg4wc32/41mqp692j8.sdf

>  <i_m_source_file_index>  (171) 
31

>  <i_lp_mmshare_version>  (171) 
48012

>  <i_f3d_flags>  (171) 
0

>  <s_epik_input>  (171) 
W0NAXTEyM1tDQEBIXTRbQ0BASF0oTzQpW0NAQEhdKE9bQ0gzXSlbQ0BAXTMoW0NIM10pW0NAQEhdNVtDQEBdNjdbQ0BAXTgoW0NASF0oW0NIMl01KU9bQ0BASF03W09IXSlbQ0BIXShbT0hdKVtDQEhdKFtDQEBdKFtDSDJdOCkoW0NIM10pW09IXSlbQ0gyXVtDSDJdW0NAQEhdNltDQEhdKFtPSF0pW0NIMl1bQ0BIXTJPMQ==

>  <s_epik_cmdline>  (171) 
J2VwaWtfcHl0aG9uJywgJy1waHQnLCAnMi4wJywgJy1waCcsICc3LjAnLCAnLXRuJywgJzgnLCAnLW1hJywgJzIwMCcsICctaW1hZScsICc8aW5maWxlLm1hZT4nLCAnLW9tYWUnLCAnPG91dGZpbGUubWFlPic=

>  <r_lp_tautomer_probability>  (171) 
1

>  <r_epik_Ionization_Penalty>  (171) 
7.26014e-07

>  <r_epik_Ionization_Penalty_Charging>  (171) 
0

>  <r_epik_Ionization_Penalty_Neutral>  (171) 
7.26014e-07

>  <r_epik_State_Penalty>  (171) 
-0

>  <r_epik_Charging_Adjusted_Penalty>  (171) 
0

>  <i_epik_Tot_Q>  (171) 
0

>  <i_epik_Tot_abs_Q>  (171) 
0

>  <s_epik_Chemistry_Notes>  (171) 
This compound contains an acetal/aminal-like group ( X-CH(R)-Y where X, Y are N, S, or O) that may be acid/base labile, releasing an aldehyde.

>  <s_lp_Force_Field>  (171) 
OPLS3e

>  <r_lp_Energy>  (171) 
123.061

>  <b_lp_Chiralities_Consistent>  (171) 
1

>  <s_lp_Variant>  (171) 
49:0-1

>  <s_i_glide_gridfile>  (171) 
pfpi4k_grid

>  <i_i_glide_lignum>  (171) 
31

>  <i_i_glide_rotatable_bonds>  (171) 
5

>  <r_i_docking_score>  (171) 
0.807018

>  <r_i_glide_ligand_efficiency>  (171) 
0.0252193

>  <r_i_glide_ligand_efficiency_sa>  (171) 
0.0800663

>  <r_i_glide_ligand_efficiency_ln>  (171) 
0.180713

>  <r_i_glide_gscore>  (171) 
0.807018

>  <r_i_glide_lipo>  (171) 
-0.0229636

>  <r_i_glide_hbond>  (171) 
-0.152042

>  <r_i_glide_metal>  (171) 
-0

>  <r_i_glide_rewards>  (171) 
-0.33735

>  <r_i_glide_evdw>  (171) 
-15.7587

>  <r_i_glide_ecoul>  (171) 
-11.3882

>  <r_i_glide_erotb>  (171) 
0

>  <r_i_glide_esite>  (171) 
-0.00836474

>  <r_i_glide_emodel>  (171) 
-9.82239

>  <r_i_glide_energy>  (171) 
-27.1469

>  <r_i_glide_einternal>  (171) 
9.56195

>  <r_i_glide_intrahb_reward>  (171) 
-0

>  <i_i_glide_confnum>  (171) 
1

>  <i_i_glide_posenum>  (171) 
36

>  <r_i_glide_eff_state_penalty>  (171) 
0

>  <ligand_id>  (171) 
49

>  <original_smiles>  (171) 
COC1C2OC2C23OC2CC(O)C2CCC4C(O)C5(CC4(C)O)C4CC(C13C)C25C(O)O4

>  <smiles>  (171) 
[H]OC1([H])OC2([H])C([H])([H])C3([H])C4(C([H])([H])[H])C([H])(OC([H])([H])[H])C5([H])OC5([H])C45OC5([H])C([H])([H])C([H])(O[H])C4([H])C([H])([H])C([H])([H])C5([H])C([H])(O[H])C2(C([H])([H])C5(O[H])C([H])([H])[H])C143

$$$$
50:0:0
     RDKit          3D

 66 70  0  0  1  0  0  0  0  0999 V2000
    1.2415   -2.1382    9.2092 C   0  0  0  0  0  0  0  0  0  0  0  0
    1.1673   -1.7854    7.7052 C   0  0  2  0  0  0  0  0  0  0  0  0
    0.3701   -2.8492    6.9142 C   0  0  0  0  0  0  0  0  0  0  0  0
    1.1289   -4.1863    6.8444 C   0  0  0  0  0  0  0  0  0  0  0  0
    2.5408   -3.9992    6.2607 C   0  0  0  0  0  0  0  0  0  0  0  0
    3.3489   -2.9156    7.0052 C   0  0  0  0  0  0  0  0  0  0  0  0
    2.5789   -1.5790    7.0815 C   0  0  1  0  0  0  0  0  0  0  0  0
    2.4864   -1.0214    5.7299 N   0  0  0  0  0  0  0  0  0  0  0  0
    2.3162    0.2673    5.4099 C   0  0  0  0  0  0  0  0  0  0  0  0
    2.2725    1.1684    6.2437 O   0  0  0  0  0  0  0  0  0  0  0  0
    2.1431    0.5598    3.9106 C   0  0  2  0  0  0  0  0  0  0  0  0
    3.0511    1.7083    3.4799 C   0  0  0  0  0  0  0  0  0  0  0  0
    2.2457    2.9932    3.6591 C   0  0  0  0  0  0  0  0  0  0  0  0
    0.7766    2.5975    3.4737 C   0  0  2  0  0  0  0  0  0  0  0  0
   -0.1731    3.2429    4.5174 C   0  0  1  0  0  0  0  0  0  0  0  0
   -0.0830    4.7782    4.5740 C   0  0  0  0  0  0  0  0  0  0  0  0
   -0.5863    5.4435    3.2864 C   0  0  0  0  0  0  0  0  0  0  0  0
   -1.9675    4.9346    2.8817 C   0  0  0  0  0  0  0  0  0  0  0  0
   -2.8074    5.7535    2.0778 C   0  0  0  0  0  0  0  0  0  0  0  0
   -4.1269    5.3716    1.7266 C   0  0  0  0  0  0  0  0  0  0  0  0
   -4.8949    6.1846    0.9538 O   0  0  0  0  0  0  0  0  0  0  0  0
   -4.5706    4.0896    2.0849 C   0  0  0  0  0  0  0  0  0  0  0  0
   -3.7466    3.2804    2.8846 C   0  0  0  0  0  0  0  0  0  0  0  0
   -2.4554    3.6809    3.3203 C   0  0  0  0  0  0  0  0  0  0  0  0
   -1.6477    2.8039    4.2942 C   0  0  1  0  0  0  0  0  0  0  0  0
   -1.7480    1.2872    4.0244 C   0  0  0  0  0  0  0  0  0  0  0  0
   -0.4535    0.4996    4.2912 C   0  0  0  0  0  0  0  0  0  0  0  0
    0.7362    1.0415    3.4522 C   0  0  2  0  0  0  0  0  0  0  0  0
    0.5560    0.5662    1.9894 C   0  0  0  0  0  0  0  0  0  0  0  0
    1.8237   -3.0330    9.4043 H   0  0  0  0  0  0  0  0  0  0  0  0
    0.2553   -2.3309    9.6252 H   0  0  0  0  0  0  0  0  0  0  0  0
    1.7099   -1.3394    9.7797 H   0  0  0  0  0  0  0  0  0  0  0  0
    0.6192   -0.8422    7.6259 H   0  0  0  0  0  0  0  0  0  0  0  0
   -0.6109   -2.9991    7.3632 H   0  0  0  0  0  0  0  0  0  0  0  0
    0.1718   -2.4906    5.9002 H   0  0  0  0  0  0  0  0  0  0  0  0
    1.1978   -4.6259    7.8382 H   0  0  0  0  0  0  0  0  0  0  0  0
    0.5659   -4.9051    6.2484 H   0  0  0  0  0  0  0  0  0  0  0  0
    3.0815   -4.9437    6.2987 H   0  0  0  0  0  0  0  0  0  0  0  0
    2.4597   -3.7350    5.2075 H   0  0  0  0  0  0  0  0  0  0  0  0
    3.5848   -3.2646    8.0110 H   0  0  0  0  0  0  0  0  0  0  0  0
    4.3225   -2.7655    6.5337 H   0  0  0  0  0  0  0  0  0  0  0  0
    3.1461   -0.8836    7.7084 H   0  0  0  0  0  0  0  0  0  0  0  0
    2.4985   -1.6751    4.9631 H   0  0  0  0  0  0  0  0  0  0  0  0
    2.4394   -0.3379    3.3645 H   0  0  0  0  0  0  0  0  0  0  0  0
    3.9827    1.7526    4.0485 H   0  0  0  0  0  0  0  0  0  0  0  0
    3.3240    1.5928    2.4296 H   0  0  0  0  0  0  0  0  0  0  0  0
    2.4286    3.3864    4.6607 H   0  0  0  0  0  0  0  0  0  0  0  0
    2.5550    3.7605    2.9443 H   0  0  0  0  0  0  0  0  0  0  0  0
    0.4636    2.9484    2.4891 H   0  0  0  0  0  0  0  0  0  0  0  0
    0.1420    2.8697    5.5010 H   0  0  0  0  0  0  0  0  0  0  0  0
   -0.7124    5.1135    5.3991 H   0  0  0  0  0  0  0  0  0  0  0  0
    0.9272    5.1166    4.8153 H   0  0  0  0  0  0  0  0  0  0  0  0
   -0.5866    6.5237    3.4233 H   0  0  0  0  0  0  0  0  0  0  0  0
    0.1416    5.3346    2.4908 H   0  0  0  0  0  0  0  0  0  0  0  0
   -2.4112    6.6927    1.7164 H   0  0  0  0  0  0  0  0  0  0  0  0
   -5.6792    5.7531    0.6520 H   0  0  0  0  0  0  0  0  0  0  0  0
   -5.5479    3.7458    1.7863 H   0  0  0  0  0  0  0  0  0  0  0  0
   -4.1386    2.3465    3.2391 H   0  0  0  0  0  0  0  0  0  0  0  0
   -2.1373    2.9590    5.2535 H   0  0  0  0  0  0  0  0  0  0  0  0
   -2.5623    0.8507    4.6043 H   0  0  0  0  0  0  0  0  0  0  0  0
   -2.0083    1.1383    2.9799 H   0  0  0  0  0  0  0  0  0  0  0  0
   -0.2621    0.5512    5.3675 H   0  0  0  0  0  0  0  0  0  0  0  0
   -0.6160   -0.5520    4.0597 H   0  0  0  0  0  0  0  0  0  0  0  0
   -0.3644    0.9378    1.5396 H   0  0  0  0  0  0  0  0  0  0  0  0
    0.5422   -0.5213    1.9197 H   0  0  0  0  0  0  0  0  0  0  0  0
    1.3633    0.9098    1.3443 H   0  0  0  0  0  0  0  0  0  0  0  0
  1  2  1  0
  1 30  1  0
  1 31  1  0
  1 32  1  0
  2  7  1  0
  2  3  1  0
  2 33  1  1
  3  4  1  0
  3 34  1  0
  3 35  1  0
  4  5  1  0
  4 36  1  0
  4 37  1  0
  5  6  1  0
  5 38  1  0
  5 39  1  0
  6  7  1  0
  6 40  1  0
  6 41  1  0
  7  8  1  0
  7 42  1  1
  8  9  1  0
  8 43  1  0
  9 10  2  0
  9 11  1  0
 11 28  1  0
 11 12  1  0
 11 44  1  6
 12 13  1  0
 12 45  1  0
 12 46  1  0
 13 14  1  0
 13 47  1  0
 13 48  1  0
 14 28  1  0
 14 15  1  0
 14 49  1  6
 15 25  1  0
 15 16  1  0
 15 50  1  1
 16 17  1  0
 16 51  1  0
 16 52  1  0
 17 18  1  0
 17 53  1  0
 17 54  1  0
 18 24  2  0
 18 19  1  0
 19 20  2  0
 19 55  1  0
 20 21  1  0
 20 22  1  0
 21 56  1  0
 22 23  2  0
 22 57  1  0
 23 24  1  0
 23 58  1  0
 24 25  1  0
 25 26  1  0
 25 59  1  1
 26 27  1  0
 26 60  1  0
 26 61  1  0
 27 28  1  0
 27 62  1  0
 27 63  1  0
 28 29  1  6
 29 64  1  0
 29 65  1  0
 29 66  1  0
M  END
>  <i_m_ct_stereo_status>  (172) 
1

>  <s_m_source_file>  (172) 
/var/tmp/pbs.5076255.sched01/tmp5eg4wc32/41mqp692j8.sdf

>  <i_m_source_file_index>  (172) 
32

>  <i_lp_mmshare_version>  (172) 
48012

>  <i_f3d_flags>  (172) 
0

>  <s_epik_input>  (172) 
W0NIM11bQ0BASF0xW0NIMl1bQ0gyXVtDSDJdW0NIMl1bQ0BIXTFbTkhdQyg9TylbQ0BASF0yW0NIMl1bQ0gyXVtDQEBIXShbQ0BAXTIzW0NIM10pW0NAQEhdNFtDQEhdKFtDSDJdW0NIMl0zKWM1YyhbQ0gyXVtDSDJdNClbY0hdYyhbT0hdKVtjSF1bY0hdNQ==

>  <s_epik_cmdline>  (172) 
J2VwaWtfcHl0aG9uJywgJy1waHQnLCAnMi4wJywgJy1waCcsICc3LjAnLCAnLXRuJywgJzgnLCAnLW1hJywgJzIwMCcsICctaW1hZScsICc8aW5maWxlLm1hZT4nLCAnLW9tYWUnLCAnPG91dGZpbGUubWFlPic=

>  <r_lp_tautomer_probability>  (172) 
1

>  <r_epik_Ionization_Penalty>  (172) 
0.000124807

>  <r_epik_Ionization_Penalty_Charging>  (172) 
0

>  <r_epik_Ionization_Penalty_Neutral>  (172) 
0.000124807

>  <r_epik_State_Penalty>  (172) 
-0

>  <r_epik_Charging_Adjusted_Penalty>  (172) 
0

>  <i_epik_Tot_Q>  (172) 
0

>  <i_epik_Tot_abs_Q>  (172) 
0

>  <s_lp_Force_Field>  (172) 
OPLS3e

>  <r_lp_Energy>  (172) 
53.6657

>  <b_lp_Chiralities_Consistent>  (172) 
1

>  <s_lp_Variant>  (172) 
50:0-1

>  <s_i_glide_gridfile>  (172) 
pfpi4k_grid

>  <i_i_glide_lignum>  (172) 
32

>  <i_i_glide_rotatable_bonds>  (172) 
4

>  <r_i_docking_score>  (172) 
-1.80353

>  <r_i_glide_ligand_efficiency>  (172) 
-0.0621906

>  <r_i_glide_ligand_efficiency_sa>  (172) 
-0.191069

>  <r_i_glide_ligand_efficiency_ln>  (172) 
-0.412962

>  <r_i_glide_gscore>  (172) 
-1.80353

>  <r_i_glide_lipo>  (172) 
-0.164745

>  <r_i_glide_hbond>  (172) 
0

>  <r_i_glide_metal>  (172) 
-0

>  <r_i_glide_rewards>  (172) 
-0.711972

>  <r_i_glide_evdw>  (172) 
-12.5154

>  <r_i_glide_ecoul>  (172) 
-4.50643

>  <r_i_glide_erotb>  (172) 
0.374925

>  <r_i_glide_esite>  (172) 
0

>  <r_i_glide_emodel>  (172) 
-19.6033

>  <r_i_glide_energy>  (172) 
-17.0218

>  <r_i_glide_einternal>  (172) 
0.180379

>  <r_i_glide_intrahb_reward>  (172) 
-0

>  <i_i_glide_confnum>  (172) 
1

>  <i_i_glide_posenum>  (172) 
12

>  <r_i_glide_eff_state_penalty>  (172) 
0

>  <ligand_id>  (172) 
50

>  <original_smiles>  (172) 
CC1CCCCC1NC(=O)C1CCC2C3CCc4cc(O)ccc4C3CCC12C

>  <smiles>  (172) 
[H]Oc1c([H])c([H])c2c(c1[H])C([H])([H])C([H])([H])C1([H])C2([H])C([H])([H])C([H])([H])C2(C([H])([H])[H])C([H])(C(=O)N([H])C3([H])C([H])([H])C([H])([H])C([H])([H])C([H])([H])C3([H])C([H])([H])[H])C([H])([H])C([H])([H])C12[H]

$$$$
50:0:1
     RDKit          3D

 66 70  0  0  1  0  0  0  0  0999 V2000
    4.6950    0.0418    9.4208 C   0  0  0  0  0  0  0  0  0  0  0  0
    4.5016    0.3314    7.9145 C   0  0  2  0  0  0  0  0  0  0  0  0
    5.7536    1.0111    7.3063 C   0  0  0  0  0  0  0  0  0  0  0  0
    5.9354    2.4403    7.8461 C   0  0  0  0  0  0  0  0  0  0  0  0
    4.6717    3.2899    7.6168 C   0  0  0  0  0  0  0  0  0  0  0  0
    3.4004    2.6177    8.1823 C   0  0  0  0  0  0  0  0  0  0  0  0
    3.2205    1.1772    7.6555 C   0  0  1  0  0  0  0  0  0  0  0  0
    2.9100    1.2555    6.2342 N   0  0  0  0  0  0  0  0  0  0  0  0
    2.2966    0.3314    5.4864 C   0  0  0  0  0  0  0  0  0  0  0  0
    1.8757   -0.7272    5.9508 O   0  0  0  0  0  0  0  0  0  0  0  0
    2.1478    0.6178    3.9764 C   0  0  2  0  0  0  0  0  0  0  0  0
    3.0514    1.7604    3.4913 C   0  0  0  0  0  0  0  0  0  0  0  0
    2.2400    3.0389    3.6683 C   0  0  0  0  0  0  0  0  0  0  0  0
    0.7695    2.6272    3.5004 C   0  0  2  0  0  0  0  0  0  0  0  0
   -0.1819    3.2798    4.5437 C   0  0  1  0  0  0  0  0  0  0  0  0
   -0.1004    4.8141    4.5783 C   0  0  0  0  0  0  0  0  0  0  0  0
   -0.5964    5.4503    3.2794 C   0  0  0  0  0  0  0  0  0  0  0  0
   -1.9871    4.9326    2.8827 C   0  0  0  0  0  0  0  0  0  0  0  0
   -2.8302    5.7413    2.0802 C   0  0  0  0  0  0  0  0  0  0  0  0
   -4.1384    5.3494    1.6994 C   0  0  0  0  0  0  0  0  0  0  0  0
   -4.8957    6.1379    0.8915 O   0  0  0  0  0  0  0  0  0  0  0  0
   -4.5847    4.0764    2.0814 C   0  0  0  0  0  0  0  0  0  0  0  0
   -3.7587    3.2763    2.8971 C   0  0  0  0  0  0  0  0  0  0  0  0
   -2.4679    3.6835    3.3210 C   0  0  0  0  0  0  0  0  0  0  0  0
   -1.6522    2.8247    4.3264 C   0  0  1  0  0  0  0  0  0  0  0  0
   -1.7428    1.3113    4.0696 C   0  0  0  0  0  0  0  0  0  0  0  0
   -0.4496    0.5415    4.3412 C   0  0  0  0  0  0  0  0  0  0  0  0
    0.7369    1.0717    3.4984 C   0  0  2  0  0  0  0  0  0  0  0  0
    0.5516    0.5725    2.0454 C   0  0  0  0  0  0  0  0  0  0  0  0
    4.7604    0.9497   10.0148 H   0  0  0  0  0  0  0  0  0  0  0  0
    5.6217   -0.5018    9.6034 H   0  0  0  0  0  0  0  0  0  0  0  0
    3.8537   -0.5257    9.8184 H   0  0  0  0  0  0  0  0  0  0  0  0
    4.3857   -0.6359    7.4171 H   0  0  0  0  0  0  0  0  0  0  0  0
    6.6426    0.4131    7.5127 H   0  0  0  0  0  0  0  0  0  0  0  0
    5.6738    1.0414    6.2183 H   0  0  0  0  0  0  0  0  0  0  0  0
    6.1657    2.4079    8.9109 H   0  0  0  0  0  0  0  0  0  0  0  0
    6.8009    2.9106    7.3793 H   0  0  0  0  0  0  0  0  0  0  0  0
    4.7999    4.2701    8.0735 H   0  0  0  0  0  0  0  0  0  0  0  0
    4.5495    3.4635    6.5484 H   0  0  0  0  0  0  0  0  0  0  0  0
    3.4488    2.6143    9.2699 H   0  0  0  0  0  0  0  0  0  0  0  0
    2.5173    3.2159    7.9563 H   0  0  0  0  0  0  0  0  0  0  0  0
    2.3735    0.7116    8.1674 H   0  0  0  0  0  0  0  0  0  0  0  0
    3.2563    2.0639    5.7399 H   0  0  0  0  0  0  0  0  0  0  0  0
    2.4449   -0.3090    3.4807 H   0  0  0  0  0  0  0  0  0  0  0  0
    4.0107    1.8213    4.0036 H   0  0  0  0  0  0  0  0  0  0  0  0
    3.3060    1.6186    2.4417 H   0  0  0  0  0  0  0  0  0  0  0  0
    2.4135    3.4499    4.6624 H   0  0  0  0  0  0  0  0  0  0  0  0
    2.5399    3.8026    2.9497 H   0  0  0  0  0  0  0  0  0  0  0  0
    0.4547    2.9540    2.5085 H   0  0  0  0  0  0  0  0  0  0  0  0
    0.1381    2.9200    5.5301 H   0  0  0  0  0  0  0  0  0  0  0  0
   -0.7336    5.1618    5.3965 H   0  0  0  0  0  0  0  0  0  0  0  0
    0.9027    5.1672    4.8180 H   0  0  0  0  0  0  0  0  0  0  0  0
   -0.6030    6.5284    3.3906 H   0  0  0  0  0  0  0  0  0  0  0  0
    0.1266    5.3246    2.4861 H   0  0  0  0  0  0  0  0  0  0  0  0
   -2.4356    6.6855    1.7183 H   0  0  0  0  0  0  0  0  0  0  0  0
   -5.6691    5.6906    0.5851 H   0  0  0  0  0  0  0  0  0  0  0  0
   -5.5665    3.7233    1.7985 H   0  0  0  0  0  0  0  0  0  0  0  0
   -4.1580    2.3512    3.2765 H   0  0  0  0  0  0  0  0  0  0  0  0
   -2.1450    2.9935    5.2850 H   0  0  0  0  0  0  0  0  0  0  0  0
   -2.5063    0.8659    4.7014 H   0  0  0  0  0  0  0  0  0  0  0  0
   -2.0339    1.1381    3.0371 H   0  0  0  0  0  0  0  0  0  0  0  0
   -0.2754    0.6168    5.4161 H   0  0  0  0  0  0  0  0  0  0  0  0
   -0.6099   -0.5177    4.1345 H   0  0  0  0  0  0  0  0  0  0  0  0
   -0.3722    0.9349    1.5943 H   0  0  0  0  0  0  0  0  0  0  0  0
    0.5383   -0.5162    1.9890 H   0  0  0  0  0  0  0  0  0  0  0  0
    1.3542    0.9106    1.3909 H   0  0  0  0  0  0  0  0  0  0  0  0
  1  2  1  0
  1 30  1  0
  1 31  1  0
  1 32  1  0
  2  7  1  0
  2  3  1  0
  2 33  1  6
  3  4  1  0
  3 34  1  0
  3 35  1  0
  4  5  1  0
  4 36  1  0
  4 37  1  0
  5  6  1  0
  5 38  1  0
  5 39  1  0
  6  7  1  0
  6 40  1  0
  6 41  1  0
  7  8  1  0
  7 42  1  1
  8  9  1  0
  8 43  1  0
  9 10  2  0
  9 11  1  0
 11 28  1  0
 11 12  1  0
 11 44  1  6
 12 13  1  0
 12 45  1  0
 12 46  1  0
 13 14  1  0
 13 47  1  0
 13 48  1  0
 14 28  1  0
 14 15  1  0
 14 49  1  6
 15 25  1  0
 15 16  1  0
 15 50  1  1
 16 17  1  0
 16 51  1  0
 16 52  1  0
 17 18  1  0
 17 53  1  0
 17 54  1  0
 18 24  2  0
 18 19  1  0
 19 20  2  0
 19 55  1  0
 20 21  1  0
 20 22  1  0
 21 56  1  0
 22 23  2  0
 22 57  1  0
 23 24  1  0
 23 58  1  0
 24 25  1  0
 25 26  1  0
 25 59  1  1
 26 27  1  0
 26 60  1  0
 26 61  1  0
 27 28  1  0
 27 62  1  0
 27 63  1  0
 28 29  1  6
 29 64  1  0
 29 65  1  0
 29 66  1  0
M  END
>  <i_m_ct_stereo_status>  (173) 
1

>  <s_m_source_file>  (173) 
/var/tmp/pbs.5076255.sched01/tmp5eg4wc32/41mqp692j8.sdf

>  <i_m_source_file_index>  (173) 
32

>  <i_lp_mmshare_version>  (173) 
48012

>  <i_f3d_flags>  (173) 
0

>  <s_epik_input>  (173) 
W0NIM11bQ0BASF0xW0NIMl1bQ0gyXVtDSDJdW0NIMl1bQ0BIXTFbTkhdQyg9TylbQ0BASF0yW0NIMl1bQ0gyXVtDQEBIXShbQ0BAXTIzW0NIM10pW0NAQEhdNFtDQEhdKFtDSDJdW0NIMl0zKWM1YyhbQ0gyXVtDSDJdNClbY0hdYyhbT0hdKVtjSF1bY0hdNQ==

>  <s_epik_cmdline>  (173) 
J2VwaWtfcHl0aG9uJywgJy1waHQnLCAnMi4wJywgJy1waCcsICc3LjAnLCAnLXRuJywgJzgnLCAnLW1hJywgJzIwMCcsICctaW1hZScsICc8aW5maWxlLm1hZT4nLCAnLW9tYWUnLCAnPG91dGZpbGUubWFlPic=

>  <r_lp_tautomer_probability>  (173) 
1

>  <r_epik_Ionization_Penalty>  (173) 
0.000124807

>  <r_epik_Ionization_Penalty_Charging>  (173) 
0

>  <r_epik_Ionization_Penalty_Neutral>  (173) 
0.000124807

>  <r_epik_State_Penalty>  (173) 
-0

>  <r_epik_Charging_Adjusted_Penalty>  (173) 
0

>  <i_epik_Tot_Q>  (173) 
0

>  <i_epik_Tot_abs_Q>  (173) 
0

>  <s_lp_Force_Field>  (173) 
OPLS3e

>  <r_lp_Energy>  (173) 
53.6657

>  <b_lp_Chiralities_Consistent>  (173) 
1

>  <s_lp_Variant>  (173) 
50:0-1

>  <s_i_glide_gridfile>  (173) 
pfpi4k_grid

>  <i_i_glide_lignum>  (173) 
32

>  <i_i_glide_rotatable_bonds>  (173) 
4

>  <r_i_docking_score>  (173) 
-1.76336

>  <r_i_glide_ligand_efficiency>  (173) 
-0.0608056

>  <r_i_glide_ligand_efficiency_sa>  (173) 
-0.186814

>  <r_i_glide_ligand_efficiency_ln>  (173) 
-0.403766

>  <r_i_glide_gscore>  (173) 
-1.76336

>  <r_i_glide_lipo>  (173) 
-0.171658

>  <r_i_glide_hbond>  (173) 
0

>  <r_i_glide_metal>  (173) 
-0

>  <r_i_glide_rewards>  (173) 
-0.711972

>  <r_i_glide_evdw>  (173) 
-11.8395

>  <r_i_glide_ecoul>  (173) 
-4.4179

>  <r_i_glide_erotb>  (173) 
0.374925

>  <r_i_glide_esite>  (173) 
0

>  <r_i_glide_emodel>  (173) 
-16.7946

>  <r_i_glide_energy>  (173) 
-16.2574

>  <r_i_glide_einternal>  (173) 
4.03392

>  <r_i_glide_intrahb_reward>  (173) 
-0

>  <i_i_glide_confnum>  (173) 
1

>  <i_i_glide_posenum>  (173) 
6

>  <r_i_glide_eff_state_penalty>  (173) 
0

>  <ligand_id>  (173) 
50

>  <original_smiles>  (173) 
CC1CCCCC1NC(=O)C1CCC2C3CCc4cc(O)ccc4C3CCC12C

>  <smiles>  (173) 
[H]Oc1c([H])c([H])c2c(c1[H])C([H])([H])C([H])([H])C1([H])C2([H])C([H])([H])C([H])([H])C2(C([H])([H])[H])C([H])(C(=O)N([H])C3([H])C([H])([H])C([H])([H])C([H])([H])C([H])([H])C3([H])C([H])([H])[H])C([H])([H])C([H])([H])C12[H]

$$$$
51:0:0
     RDKit          3D

 34 35  0  0  1  0  0  0  0  0999 V2000
    0.8538  -10.8912    3.6558 C   0  0  0  0  0  0  0  0  0  0  0  0
    0.0982   -9.6756    3.1029 C   0  0  0  0  0  0  0  0  0  0  0  0
    0.9961   -8.4544    3.0985 C   0  0  2  0  0  0  0  0  0  0  0  0
    0.5399   -7.3452    2.1649 C   0  0  0  0  0  0  0  0  0  0  0  0
   -0.4753   -6.6684    1.9899 O   0  0  0  0  0  0  0  0  0  0  0  0
    1.7374   -7.2332    1.5451 O   0  0  0  0  0  0  0  0  0  0  0  0
    2.2173   -8.4280    2.2138 C   0  0  1  0  0  0  0  0  0  0  0  0
    3.5687   -8.2577    2.8982 C   0  0  0  0  0  0  0  0  0  0  0  0
    4.7469   -8.0422    1.9480 C   0  0  0  0  0  0  0  0  0  0  0  0
    4.7821   -6.6653    1.3779 C   0  0  0  0  0  0  0  0  0  0  0  0
    4.5169   -6.2946    0.0910 C   0  0  0  0  0  0  0  0  0  0  0  0
    4.5859   -4.8857   -0.1109 C   0  0  0  0  0  0  0  0  0  0  0  0
    4.9092   -4.1969    1.0270 C   0  0  0  0  0  0  0  0  0  0  0  0
    5.0619   -2.7577    1.2248 C   0  0  0  0  0  0  0  0  0  0  0  0
    5.4009   -2.2546    2.2966 O   0  0  0  0  0  0  0  0  0  0  0  0
    4.7916   -2.0632    0.1062 O   0  0  0  0  0  0  0  0  0  0  0  0
    4.8433   -0.6483    0.1192 C   0  0  0  0  0  0  0  0  0  0  0  0
    5.1395   -5.2778    2.3807 S   0  0  0  0  0  0  0  0  0  0  0  0
    0.2252  -11.7869    3.6349 H   0  0  0  0  0  0  0  0  0  0  0  0
    1.1664  -10.7201    4.6893 H   0  0  0  0  0  0  0  0  0  0  0  0
    1.7560  -11.1052    3.0732 H   0  0  0  0  0  0  0  0  0  0  0  0
   -0.2404   -9.9096    2.0898 H   0  0  0  0  0  0  0  0  0  0  0  0
   -0.7940   -9.4837    3.6969 H   0  0  0  0  0  0  0  0  0  0  0  0
    1.2301   -8.0758    4.0952 H   0  0  0  0  0  0  0  0  0  0  0  0
    2.1919   -9.2637    1.5092 H   0  0  0  0  0  0  0  0  0  0  0  0
    3.5428   -7.4723    3.6628 H   0  0  0  0  0  0  0  0  0  0  0  0
    3.7608   -9.1849    3.4406 H   0  0  0  0  0  0  0  0  0  0  0  0
    5.6703   -8.2103    2.4979 H   0  0  0  0  0  0  0  0  0  0  0  0
    4.7324   -8.7899    1.1508 H   0  0  0  0  0  0  0  0  0  0  0  0
    4.2533   -6.9717   -0.7098 H   0  0  0  0  0  0  0  0  0  0  0  0
    4.3851   -4.4427   -1.0724 H   0  0  0  0  0  0  0  0  0  0  0  0
    4.6023   -0.2705   -0.8739 H   0  0  0  0  0  0  0  0  0  0  0  0
    5.8384   -0.2886    0.3841 H   0  0  0  0  0  0  0  0  0  0  0  0
    4.1198   -0.2307    0.8206 H   0  0  0  0  0  0  0  0  0  0  0  0
  1  2  1  0
  1 19  1  0
  1 20  1  0
  1 21  1  0
  2  3  1  0
  2 22  1  0
  2 23  1  0
  3  7  1  0
  3  4  1  0
  3 24  1  1
  4  5  2  0
  4  6  1  0
  6  7  1  0
  7  8  1  0
  7 25  1  6
  8  9  1  0
  8 26  1  0
  8 27  1  0
  9 10  1  0
  9 28  1  0
  9 29  1  0
 10 18  1  0
 10 11  2  0
 11 12  1  0
 11 30  1  0
 12 13  2  0
 12 31  1  0
 13 14  1  0
 13 18  1  0
 14 15  2  0
 14 16  1  0
 16 17  1  0
 17 32  1  0
 17 33  1  0
 17 34  1  0
M  END
>  <i_m_ct_stereo_status>  (174) 
1

>  <s_m_source_file>  (174) 
/var/tmp/pbs.5076255.sched01/tmp5eg4wc32/41mqp692j8.sdf

>  <i_m_source_file_index>  (174) 
33

>  <i_lp_mmshare_version>  (174) 
48012

>  <i_f3d_flags>  (174) 
0

>  <s_epik_input>  (174) 
W0NIM11bQ0gyXVtDQEBIXTFDKD1PKU9bQ0BIXTFbQ0gyXVtDSDJdYzJbY0hdW2NIXWMoczIpQyg9TylPW0NIM10=

>  <s_epik_cmdline>  (174) 
J2VwaWtfcHl0aG9uJywgJy1waHQnLCAnMi4wJywgJy1waCcsICc3LjAnLCAnLXRuJywgJzgnLCAnLW1hJywgJzIwMCcsICctaW1hZScsICc8aW5maWxlLm1hZT4nLCAnLW9tYWUnLCAnPG91dGZpbGUubWFlPic=

>  <r_lp_tautomer_probability>  (174) 
1

>  <r_epik_Ionization_Penalty>  (174) 
0

>  <r_epik_Ionization_Penalty_Charging>  (174) 
0

>  <r_epik_Ionization_Penalty_Neutral>  (174) 
0

>  <r_epik_State_Penalty>  (174) 
-0

>  <r_epik_Charging_Adjusted_Penalty>  (174) 
0

>  <i_epik_Tot_Q>  (174) 
0

>  <i_epik_Tot_abs_Q>  (174) 
0

>  <s_epik_Chemistry_Notes>  (174) 
This compound has an ester and may undergo hydrolysis at high or low pH.

>  <s_lp_Force_Field>  (174) 
OPLS3e

>  <r_lp_Energy>  (174) 
11.5534

>  <b_lp_Chiralities_Consistent>  (174) 
1

>  <s_lp_Variant>  (174) 
51:0-1

>  <s_i_glide_gridfile>  (174) 
pfpi4k_grid

>  <i_i_glide_lignum>  (174) 
33

>  <i_i_glide_rotatable_bonds>  (174) 
6

>  <r_i_docking_score>  (174) 
-2.99581

>  <r_i_glide_ligand_efficiency>  (174) 
-0.166434

>  <r_i_glide_ligand_efficiency_sa>  (174) 
-0.436181

>  <r_i_glide_ligand_efficiency_ln>  (174) 
-0.770059

>  <r_i_glide_gscore>  (174) 
-2.99581

>  <r_i_glide_lipo>  (174) 
-0.360178

>  <r_i_glide_hbond>  (174) 
-0.171144

>  <r_i_glide_metal>  (174) 
-0

>  <r_i_glide_rewards>  (174) 
-1.62744

>  <r_i_glide_evdw>  (174) 
-20.1424

>  <r_i_glide_ecoul>  (174) 
-5.11146

>  <r_i_glide_erotb>  (174) 
0.991563

>  <r_i_glide_esite>  (174) 
-0.05478

>  <r_i_glide_emodel>  (174) 
-28.634

>  <r_i_glide_energy>  (174) 
-25.2539

>  <r_i_glide_einternal>  (174) 
3.90977

>  <r_i_glide_intrahb_reward>  (174) 
-0

>  <i_i_glide_confnum>  (174) 
6

>  <i_i_glide_posenum>  (174) 
18

>  <r_i_glide_eff_state_penalty>  (174) 
0

>  <ligand_id>  (174) 
51

>  <original_smiles>  (174) 
CCC1C(=O)OC1CCc1ccc(C(=O)OC)s1

>  <smiles>  (174) 
[H]c1c(C(=O)OC([H])([H])[H])sc(C([H])([H])C([H])([H])C2([H])OC(=O)C2([H])C([H])([H])C([H])([H])[H])c1[H]

$$$$
51:0:1
     RDKit          3D

 34 35  0  0  1  0  0  0  0  0999 V2000
    2.1011   -9.3196    2.1394 C   0  0  0  0  0  0  0  0  0  0  0  0
    0.6869   -9.5354    2.7434 C   0  0  0  0  0  0  0  0  0  0  0  0
   -0.0295   -8.2610    3.1682 C   0  0  2  0  0  0  0  0  0  0  0  0
    0.0597   -7.0811    2.2007 C   0  0  0  0  0  0  0  0  0  0  0  0
   -0.1880   -6.8041    1.0329 O   0  0  0  0  0  0  0  0  0  0  0  0
    0.5451   -6.2134    3.1259 O   0  0  0  0  0  0  0  0  0  0  0  0
    0.6745   -7.2879    4.0957 C   0  0  1  0  0  0  0  0  0  0  0  0
    0.0189   -6.9490    5.4321 C   0  0  0  0  0  0  0  0  0  0  0  0
    0.7572   -5.8813    6.2576 C   0  0  0  0  0  0  0  0  0  0  0  0
    0.5993   -4.4966    5.7314 C   0  0  0  0  0  0  0  0  0  0  0  0
    1.2653   -3.9410    4.6771 C   0  0  0  0  0  0  0  0  0  0  0  0
    0.8009   -2.6430    4.3393 C   0  0  0  0  0  0  0  0  0  0  0  0
   -0.1811   -2.1922    5.1883 C   0  0  0  0  0  0  0  0  0  0  0  0
   -0.8804   -0.9153    5.1766 C   0  0  0  0  0  0  0  0  0  0  0  0
   -1.6977   -0.5927    6.0421 O   0  0  0  0  0  0  0  0  0  0  0  0
   -0.5327   -0.1567    4.1279 O   0  0  0  0  0  0  0  0  0  0  0  0
   -1.0996    1.1300    3.9594 C   0  0  0  0  0  0  0  0  0  0  0  0
   -0.5671   -3.3882    6.4034 S   0  0  0  0  0  0  0  0  0  0  0  0
    2.5703  -10.2733    1.8813 H   0  0  0  0  0  0  0  0  0  0  0  0
    2.7729   -8.8066    2.8260 H   0  0  0  0  0  0  0  0  0  0  0  0
    2.0640   -8.7260    1.2275 H   0  0  0  0  0  0  0  0  0  0  0  0
    0.0523  -10.0941    2.0551 H   0  0  0  0  0  0  0  0  0  0  0  0
    0.7932  -10.1760    3.6214 H   0  0  0  0  0  0  0  0  0  0  0  0
   -1.0468   -8.4230    3.5072 H   0  0  0  0  0  0  0  0  0  0  0  0
    1.7297   -7.5216    4.2124 H   0  0  0  0  0  0  0  0  0  0  0  0
   -1.0445   -6.7000    5.3165 H   0  0  0  0  0  0  0  0  0  0  0  0
    0.0577   -7.8659    6.0187 H   0  0  0  0  0  0  0  0  0  0  0  0
    0.3526   -5.9162    7.2624 H   0  0  0  0  0  0  0  0  0  0  0  0
    1.8170   -6.1276    6.3525 H   0  0  0  0  0  0  0  0  0  0  0  0
    2.0268   -4.4395    4.0882 H   0  0  0  0  0  0  0  0  0  0  0  0
    1.1972   -2.0975    3.4979 H   0  0  0  0  0  0  0  0  0  0  0  0
   -0.6899    1.5925    3.0624 H   0  0  0  0  0  0  0  0  0  0  0  0
   -0.8676    1.7761    4.8073 H   0  0  0  0  0  0  0  0  0  0  0  0
   -2.1830    1.0741    3.8476 H   0  0  0  0  0  0  0  0  0  0  0  0
  1  2  1  0
  1 19  1  0
  1 20  1  0
  1 21  1  0
  2  3  1  0
  2 22  1  0
  2 23  1  0
  3  7  1  0
  3  4  1  0
  3 24  1  1
  4  5  2  0
  4  6  1  0
  6  7  1  0
  7  8  1  0
  7 25  1  1
  8  9  1  0
  8 26  1  0
  8 27  1  0
  9 10  1  0
  9 28  1  0
  9 29  1  0
 10 18  1  0
 10 11  2  0
 11 12  1  0
 11 30  1  0
 12 13  2  0
 12 31  1  0
 13 14  1  0
 13 18  1  0
 14 15  2  0
 14 16  1  0
 16 17  1  0
 17 32  1  0
 17 33  1  0
 17 34  1  0
M  END
>  <i_m_ct_stereo_status>  (175) 
1

>  <s_m_source_file>  (175) 
/var/tmp/pbs.5076255.sched01/tmp5eg4wc32/41mqp692j8.sdf

>  <i_m_source_file_index>  (175) 
33

>  <i_lp_mmshare_version>  (175) 
48012

>  <i_f3d_flags>  (175) 
0

>  <s_epik_input>  (175) 
W0NIM11bQ0gyXVtDQEBIXTFDKD1PKU9bQ0BIXTFbQ0gyXVtDSDJdYzJbY0hdW2NIXWMoczIpQyg9TylPW0NIM10=

>  <s_epik_cmdline>  (175) 
J2VwaWtfcHl0aG9uJywgJy1waHQnLCAnMi4wJywgJy1waCcsICc3LjAnLCAnLXRuJywgJzgnLCAnLW1hJywgJzIwMCcsICctaW1hZScsICc8aW5maWxlLm1hZT4nLCAnLW9tYWUnLCAnPG91dGZpbGUubWFlPic=

>  <r_lp_tautomer_probability>  (175) 
1

>  <r_epik_Ionization_Penalty>  (175) 
0

>  <r_epik_Ionization_Penalty_Charging>  (175) 
0

>  <r_epik_Ionization_Penalty_Neutral>  (175) 
0

>  <r_epik_State_Penalty>  (175) 
-0

>  <r_epik_Charging_Adjusted_Penalty>  (175) 
0

>  <i_epik_Tot_Q>  (175) 
0

>  <i_epik_Tot_abs_Q>  (175) 
0

>  <s_epik_Chemistry_Notes>  (175) 
This compound has an ester and may undergo hydrolysis at high or low pH.

>  <s_lp_Force_Field>  (175) 
OPLS3e

>  <r_lp_Energy>  (175) 
11.5534

>  <b_lp_Chiralities_Consistent>  (175) 
1

>  <s_lp_Variant>  (175) 
51:0-1

>  <s_i_glide_gridfile>  (175) 
pfpi4k_grid

>  <i_i_glide_lignum>  (175) 
33

>  <i_i_glide_rotatable_bonds>  (175) 
6

>  <r_i_docking_score>  (175) 
-2.82743

>  <r_i_glide_ligand_efficiency>  (175) 
-0.15708

>  <r_i_glide_ligand_efficiency_sa>  (175) 
-0.411665

>  <r_i_glide_ligand_efficiency_ln>  (175) 
-0.726777

>  <r_i_glide_gscore>  (175) 
-2.82743

>  <r_i_glide_lipo>  (175) 
-0.124016

>  <r_i_glide_hbond>  (175) 
-0.237073

>  <r_i_glide_metal>  (175) 
-0

>  <r_i_glide_rewards>  (175) 
-1.57957

>  <r_i_glide_evdw>  (175) 
-20.0228

>  <r_i_glide_ecoul>  (175) 
-5.06148

>  <r_i_glide_erotb>  (175) 
0.991563

>  <r_i_glide_esite>  (175) 
-0.117975

>  <r_i_glide_emodel>  (175) 
-27.6105

>  <r_i_glide_energy>  (175) 
-25.0843

>  <r_i_glide_einternal>  (175) 
4.31091

>  <r_i_glide_intrahb_reward>  (175) 
-0

>  <i_i_glide_confnum>  (175) 
6

>  <i_i_glide_posenum>  (175) 
14

>  <r_i_glide_eff_state_penalty>  (175) 
0

>  <ligand_id>  (175) 
51

>  <original_smiles>  (175) 
CCC1C(=O)OC1CCc1ccc(C(=O)OC)s1

>  <smiles>  (175) 
[H]c1c(C(=O)OC([H])([H])[H])sc(C([H])([H])C([H])([H])C2([H])OC(=O)C2([H])C([H])([H])C([H])([H])[H])c1[H]

$$$$
51:0:2
     RDKit          3D

 34 35  0  0  1  0  0  0  0  0999 V2000
    0.2800  -10.3919    2.9656 C   0  0  0  0  0  0  0  0  0  0  0  0
    1.1091   -9.2385    3.5207 C   0  0  0  0  0  0  0  0  0  0  0  0
    0.2699   -8.0074    3.7843 C   0  0  2  0  0  0  0  0  0  0  0  0
    0.1994   -7.0033    2.6418 C   0  0  0  0  0  0  0  0  0  0  0  0
   -0.1699   -6.9481    1.4759 O   0  0  0  0  0  0  0  0  0  0  0  0
    0.6209   -5.9567    3.3975 O   0  0  0  0  0  0  0  0  0  0  0  0
    0.9167   -6.8523    4.5046 C   0  0  1  0  0  0  0  0  0  0  0  0
    0.3058   -6.4102    5.8355 C   0  0  0  0  0  0  0  0  0  0  0  0
    1.0045   -5.2145    6.4983 C   0  0  0  0  0  0  0  0  0  0  0  0
    0.6686   -3.9140    5.8565 C   0  0  0  0  0  0  0  0  0  0  0  0
    1.2155   -3.3827    4.7218 C   0  0  0  0  0  0  0  0  0  0  0  0
    0.6189   -2.1516    4.3329 C   0  0  0  0  0  0  0  0  0  0  0  0
   -0.3717   -1.7416    5.1906 C   0  0  0  0  0  0  0  0  0  0  0  0
   -1.1825   -0.5297    5.1517 C   0  0  0  0  0  0  0  0  0  0  0  0
   -2.0253   -0.2615    6.0104 O   0  0  0  0  0  0  0  0  0  0  0  0
   -0.8868    0.2384    4.0912 O   0  0  0  0  0  0  0  0  0  0  0  0
   -1.4997    1.5028    3.9229 C   0  0  0  0  0  0  0  0  0  0  0  0
   -0.6026   -2.8980    6.4786 S   0  0  0  0  0  0  0  0  0  0  0  0
    0.9085  -11.2729    2.8230 H   0  0  0  0  0  0  0  0  0  0  0  0
   -0.1799  -10.1298    2.0138 H   0  0  0  0  0  0  0  0  0  0  0  0
   -0.5213  -10.6540    3.6580 H   0  0  0  0  0  0  0  0  0  0  0  0
    1.5832   -9.5595    4.4510 H   0  0  0  0  0  0  0  0  0  0  0  0
    1.9265   -9.0086    2.8310 H   0  0  0  0  0  0  0  0  0  0  0  0
   -0.7088   -8.2084    4.2106 H   0  0  0  0  0  0  0  0  0  0  0  0
    1.9951   -6.9945    4.5593 H   0  0  0  0  0  0  0  0  0  0  0  0
   -0.7718   -6.2342    5.7507 H   0  0  0  0  0  0  0  0  0  0  0  0
    0.4148   -7.2547    6.5160 H   0  0  0  0  0  0  0  0  0  0  0  0
    0.6949   -5.1823    7.5400 H   0  0  0  0  0  0  0  0  0  0  0  0
    2.0852   -5.3629    6.5207 H   0  0  0  0  0  0  0  0  0  0  0  0
    1.9966   -3.8510    4.1357 H   0  0  0  0  0  0  0  0  0  0  0  0
    0.9335   -1.6153    3.4512 H   0  0  0  0  0  0  0  0  0  0  0  0
   -1.1414    1.9613    3.0021 H   0  0  0  0  0  0  0  0  0  0  0  0
   -1.2523    2.1657    4.7502 H   0  0  0  0  0  0  0  0  0  0  0  0
   -2.5809    1.4208    3.8606 H   0  0  0  0  0  0  0  0  0  0  0  0
  1  2  1  0
  1 19  1  0
  1 20  1  0
  1 21  1  0
  2  3  1  0
  2 22  1  0
  2 23  1  0
  3  7  1  0
  3  4  1  0
  3 24  1  1
  4  5  2  0
  4  6  1  0
  6  7  1  0
  7  8  1  0
  7 25  1  1
  8  9  1  0
  8 26  1  0
  8 27  1  0
  9 10  1  0
  9 28  1  0
  9 29  1  0
 10 18  1  0
 10 11  2  0
 11 12  1  0
 11 30  1  0
 12 13  2  0
 12 31  1  0
 13 14  1  0
 13 18  1  0
 14 15  2  0
 14 16  1  0
 16 17  1  0
 17 32  1  0
 17 33  1  0
 17 34  1  0
M  END
>  <i_m_ct_stereo_status>  (176) 
1

>  <s_m_source_file>  (176) 
/var/tmp/pbs.5076255.sched01/tmp5eg4wc32/41mqp692j8.sdf

>  <i_m_source_file_index>  (176) 
33

>  <i_lp_mmshare_version>  (176) 
48012

>  <i_f3d_flags>  (176) 
0

>  <s_epik_input>  (176) 
W0NIM11bQ0gyXVtDQEBIXTFDKD1PKU9bQ0BIXTFbQ0gyXVtDSDJdYzJbY0hdW2NIXWMoczIpQyg9TylPW0NIM10=

>  <s_epik_cmdline>  (176) 
J2VwaWtfcHl0aG9uJywgJy1waHQnLCAnMi4wJywgJy1waCcsICc3LjAnLCAnLXRuJywgJzgnLCAnLW1hJywgJzIwMCcsICctaW1hZScsICc8aW5maWxlLm1hZT4nLCAnLW9tYWUnLCAnPG91dGZpbGUubWFlPic=

>  <r_lp_tautomer_probability>  (176) 
1

>  <r_epik_Ionization_Penalty>  (176) 
0

>  <r_epik_Ionization_Penalty_Charging>  (176) 
0

>  <r_epik_Ionization_Penalty_Neutral>  (176) 
0

>  <r_epik_State_Penalty>  (176) 
-0

>  <r_epik_Charging_Adjusted_Penalty>  (176) 
0

>  <i_epik_Tot_Q>  (176) 
0

>  <i_epik_Tot_abs_Q>  (176) 
0

>  <s_epik_Chemistry_Notes>  (176) 
This compound has an ester and may undergo hydrolysis at high or low pH.

>  <s_lp_Force_Field>  (176) 
OPLS3e

>  <r_lp_Energy>  (176) 
11.5534

>  <b_lp_Chiralities_Consistent>  (176) 
1

>  <s_lp_Variant>  (176) 
51:0-1

>  <s_i_glide_gridfile>  (176) 
pfpi4k_grid

>  <i_i_glide_lignum>  (176) 
33

>  <i_i_glide_rotatable_bonds>  (176) 
6

>  <r_i_docking_score>  (176) 
-2.64114

>  <r_i_glide_ligand_efficiency>  (176) 
-0.14673

>  <r_i_glide_ligand_efficiency_sa>  (176) 
-0.384541

>  <r_i_glide_ligand_efficiency_ln>  (176) 
-0.67889

>  <r_i_glide_gscore>  (176) 
-2.64114

>  <r_i_glide_lipo>  (176) 
-0.100251

>  <r_i_glide_hbond>  (176) 
-0.183166

>  <r_i_glide_metal>  (176) 
-0

>  <r_i_glide_rewards>  (176) 
-1.57957

>  <r_i_glide_evdw>  (176) 
-19.3428

>  <r_i_glide_ecoul>  (176) 
-4.62378

>  <r_i_glide_erotb>  (176) 
0.991563

>  <r_i_glide_esite>  (176) 
-0.109005

>  <r_i_glide_emodel>  (176) 
-27.3778

>  <r_i_glide_energy>  (176) 
-23.9666

>  <r_i_glide_einternal>  (176) 
2.11145

>  <r_i_glide_intrahb_reward>  (176) 
-0

>  <i_i_glide_confnum>  (176) 
6

>  <i_i_glide_posenum>  (176) 
38

>  <r_i_glide_eff_state_penalty>  (176) 
0

>  <ligand_id>  (176) 
51

>  <original_smiles>  (176) 
CCC1C(=O)OC1CCc1ccc(C(=O)OC)s1

>  <smiles>  (176) 
[H]c1c(C(=O)OC([H])([H])[H])sc(C([H])([H])C([H])([H])C2([H])OC(=O)C2([H])C([H])([H])C([H])([H])[H])c1[H]

$$$$
52:1:0
     RDKit          3D

 65 71  0  0  1  0  0  0  0  0999 V2000
    4.2147   -0.8513   -3.6739 C   0  0  0  0  0  0  0  0  0  0  0  0
    4.9909   -0.9887   -2.4648 O   0  0  0  0  0  0  0  0  0  0  0  0
    4.5114   -1.9220   -1.4773 C   0  0  1  0  0  0  0  0  0  0  0  0
    3.0130   -1.8376   -1.3375 C   0  0  0  0  0  0  0  0  0  0  0  0
    2.6480   -2.7201   -0.1336 C   0  0  0  0  0  0  0  0  0  0  0  0
    3.8992   -3.5776    0.4411 C   0  0  2  0  0  0  0  0  0  0  0  0
    4.1721   -4.4671   -0.7886 C   0  0  0  0  0  0  0  0  0  0  0  0
    4.6023   -3.4560   -1.9182 C   0  0  0  0  0  0  0  0  0  0  0  0
    5.0121   -3.8218   -3.0218 O   0  0  0  0  0  0  0  0  0  0  0  0
    3.2751   -3.8212    1.8871 C   0  0  2  0  0  0  0  0  0  0  0  0
    3.5279   -2.5019    2.8099 C   0  0  2  0  0  0  0  0  0  0  0  0
    5.0523   -2.0274    2.9180 C   0  0  2  0  0  0  0  0  0  0  0  0
    5.6480   -0.7032    2.2007 C   0  0  0  0  0  0  0  0  0  0  0  0
    6.1258   -0.8275    0.6457 C   0  0  1  0  0  0  0  0  0  0  0  0
    7.2448   -1.7007    0.3424 O   0  0  0  0  0  0  0  0  0  0  0  0
    6.7300   -2.9661   -0.0147 C   0  0  1  0  0  0  0  0  0  0  0  0
    7.5698   -4.0456    0.3421 O   0  0  0  0  0  0  0  0  0  0  0  0
    5.3240   -2.9165    0.7249 C   0  0  2  0  0  0  0  0  0  0  0  0
    5.8201   -3.0603    2.2167 C   0  0  2  0  0  0  0  0  0  0  0  0
    5.9910   -4.4507    2.8965 C   0  0  0  0  0  0  0  0  0  0  0  0
    5.0424   -5.5568    2.4951 C   0  0  0  0  0  0  0  0  0  0  0  0
    3.5717   -5.1591    2.6068 C   0  0  2  0  0  0  0  0  0  0  0  0
    2.8729   -6.1615    1.8883 O   0  0  0  0  0  0  0  0  0  0  0  0
    2.9542   -5.1887    4.0477 C   0  0  1  0  0  0  0  0  0  0  0  0
    3.3823   -6.3201    4.7863 O   0  0  0  0  0  0  0  0  0  0  0  0
    3.0728   -3.9061    4.9269 C   0  0  1  0  0  0  0  0  0  0  0  0
    4.3120   -3.8189    5.6040 O   0  0  0  0  0  0  0  0  0  0  0  0
    2.7392   -2.5927    4.1618 C   0  0  0  0  0  0  0  0  0  0  0  0
    2.9849   -1.3428    5.0473 C   0  0  0  0  0  0  0  0  0  0  0  0
    1.2111   -2.5800    3.8714 C   0  0  0  0  0  0  0  0  0  0  0  0
    4.9823   -1.5842    0.0532 C   0  0  2  0  0  0  0  0  0  0  0  0
    4.6105   -0.0741   -4.3347 H   0  0  0  0  0  0  0  0  0  0  0  0
    3.2041   -0.5037   -3.4907 H   0  0  0  0  0  0  0  0  0  0  0  0
    4.1762   -1.7639   -4.2674 H   0  0  0  0  0  0  0  0  0  0  0  0
    2.7329   -0.7907   -1.1915 H   0  0  0  0  0  0  0  0  0  0  0  0
    2.4590   -2.1961   -2.2151 H   0  0  0  0  0  0  0  0  0  0  0  0
    2.2070   -2.0418    0.5870 H   0  0  0  0  0  0  0  0  0  0  0  0
    1.8306   -3.3809   -0.4273 H   0  0  0  0  0  0  0  0  0  0  0  0
    4.9514   -5.2129   -0.6199 H   0  0  0  0  0  0  0  0  0  0  0  0
    3.2525   -4.9716   -1.0633 H   0  0  0  0  0  0  0  0  0  0  0  0
    2.1951   -3.9006    1.7646 H   0  0  0  0  0  0  0  0  0  0  0  0
    3.0668   -1.6387    2.3428 H   0  0  0  0  0  0  0  0  0  0  0  0
    5.3724   -2.0093    3.9544 H   0  0  0  0  0  0  0  0  0  0  0  0
    4.9039    0.0899    2.2902 H   0  0  0  0  0  0  0  0  0  0  0  0
    6.5004   -0.3523    2.7848 H   0  0  0  0  0  0  0  0  0  0  0  0
    6.2703    0.1500    0.1882 H   0  0  0  0  0  0  0  0  0  0  0  0
    6.8000   -2.9312   -1.0971 H   0  0  0  0  0  0  0  0  0  0  0  0
    8.3524   -3.9814   -0.1791 H   0  0  0  0  0  0  0  0  0  0  0  0
    6.8302   -2.7012    2.3145 H   0  0  0  0  0  0  0  0  0  0  0  0
    6.9856   -4.8316    2.6617 H   0  0  0  0  0  0  0  0  0  0  0  0
    6.0279   -4.3464    3.9731 H   0  0  0  0  0  0  0  0  0  0  0  0
    5.2868   -5.8268    1.4692 H   0  0  0  0  0  0  0  0  0  0  0  0
    5.2720   -6.4512    3.0782 H   0  0  0  0  0  0  0  0  0  0  0  0
    3.1469   -7.0001    2.2230 H   0  0  0  0  0  0  0  0  0  0  0  0
    1.8831   -5.3418    3.9159 H   0  0  0  0  0  0  0  0  0  0  0  0
    3.1001   -7.1019    4.3420 H   0  0  0  0  0  0  0  0  0  0  0  0
    2.3513   -4.0104    5.7383 H   0  0  0  0  0  0  0  0  0  0  0  0
    5.0022   -3.7797    4.9638 H   0  0  0  0  0  0  0  0  0  0  0  0
    2.3405   -1.3551    5.9275 H   0  0  0  0  0  0  0  0  0  0  0  0
    2.7704   -0.4265    4.4962 H   0  0  0  0  0  0  0  0  0  0  0  0
    4.0053   -1.2661    5.4202 H   0  0  0  0  0  0  0  0  0  0  0  0
    0.6390   -2.4988    4.7984 H   0  0  0  0  0  0  0  0  0  0  0  0
    0.8541   -3.4819    3.3737 H   0  0  0  0  0  0  0  0  0  0  0  0
    0.9320   -1.7341    3.2398 H   0  0  0  0  0  0  0  0  0  0  0  0
    4.1687   -1.0093    0.5025 H   0  0  0  0  0  0  0  0  0  0  0  0
  1  2  1  0
  1 32  1  0
  1 33  1  0
  1 34  1  0
  3  2  1  6
  3  8  1  0
  3 31  1  0
  3  4  1  0
  4  5  1  0
  4 35  1  0
  4 36  1  0
  6  5  1  6
  5 37  1  0
  5 38  1  0
 18  6  1  6
  6  7  1  0
  6 10  1  0
  7  8  1  0
  7 39  1  0
  7 40  1  0
  8  9  2  0
 10 22  1  0
 10 11  1  0
 10 41  1  6
 11 28  1  0
 11 12  1  0
 11 42  1  6
 12 19  1  0
 12 13  1  0
 12 43  1  1
 13 14  1  0
 13 44  1  0
 13 45  1  0
 14 31  1  0
 14 15  1  0
 14 46  1  6
 15 16  1  0
 16 17  1  0
 16 18  1  0
 16 47  1  6
 17 48  1  0
 18 19  1  0
 18 31  1  0
 19 20  1  0
 19 49  1  6
 20 21  1  0
 20 50  1  0
 20 51  1  0
 21 22  1  0
 21 52  1  0
 21 53  1  0
 22 23  1  6
 22 24  1  0
 23 54  1  0
 24 25  1  0
 24 26  1  0
 24 55  1  6
 25 56  1  0
 26 27  1  0
 26 28  1  0
 26 57  1  1
 27 58  1  0
 28 29  1  0
 28 30  1  0
 29 59  1  0
 29 60  1  0
 29 61  1  0
 30 62  1  0
 30 63  1  0
 30 64  1  0
 31 65  1  1
M  END
>  <i_m_ct_stereo_status>  (177) 
1

>  <s_m_source_file>  (177) 
/var/tmp/pbs.5076255.sched01/tmp5eg4wc32/41mqp692j8.sdf

>  <i_m_source_file_index>  (177) 
35

>  <i_lp_mmshare_version>  (177) 
48012

>  <i_f3d_flags>  (177) 
0

>  <s_epik_input>  (177) 
W0NIM11PW0NAQF0oW0NIMl1bQ0gyXTEpKEMoPU8pW0NIMl0yKVtDQEhdM1tDQEhdKE9bQ0BIXTRbT0hdKVtDSDJdW0NIXShbQ0BASF01W0NAQF0zNFtDQEBdMTI2KVtDQEhdN1tDQEBIXTZbQ0BAXShbT0hdKShbQ0gyXVtDSDJdNSlbQ0BASF0oW09IXSlbQ0BASF0oW09IXSlDNyhbQ0gzXSlbQ0gzXQ==

>  <s_epik_cmdline>  (177) 
J2VwaWtfcHl0aG9uJywgJy1waHQnLCAnMi4wJywgJy1waCcsICc3LjAnLCAnLXRuJywgJzgnLCAnLW1hJywgJzIwMCcsICctaW1hZScsICc8aW5maWxlLm1hZT4nLCAnLW9tYWUnLCAnPG91dGZpbGUubWFlPic=

>  <r_lp_tautomer_probability>  (177) 
1

>  <r_epik_Ionization_Penalty>  (177) 
8.40014e-07

>  <r_epik_Ionization_Penalty_Charging>  (177) 
0

>  <r_epik_Ionization_Penalty_Neutral>  (177) 
8.40014e-07

>  <r_epik_State_Penalty>  (177) 
-0

>  <r_epik_Charging_Adjusted_Penalty>  (177) 
0

>  <i_epik_Tot_Q>  (177) 
0

>  <i_epik_Tot_abs_Q>  (177) 
0

>  <s_epik_Chemistry_Notes>  (177) 
This compound contains an acetal/aminal-like group ( X-CH(R)-Y where X, Y are N, S, or O) that may be acid/base labile, releasing an aldehyde.

>  <s_lp_Force_Field>  (177) 
OPLS3e

>  <r_lp_Energy>  (177) 
230.544

>  <b_lp_Chiralities_Consistent>  (177) 
1

>  <s_lp_Variant>  (177) 
52:0-2

>  <s_i_glide_gridfile>  (177) 
pfpi4k_grid

>  <i_i_glide_lignum>  (177) 
35

>  <i_i_glide_rotatable_bonds>  (177) 
5

>  <r_i_docking_score>  (177) 
-2.504

>  <r_i_glide_ligand_efficiency>  (177) 
-0.0807742

>  <r_i_glide_ligand_efficiency_sa>  (177) 
-0.253743

>  <r_i_glide_ligand_efficiency_ln>  (177) 
-0.564729

>  <r_i_glide_gscore>  (177) 
-2.504

>  <r_i_glide_lipo>  (177) 
-0.602687

>  <r_i_glide_hbond>  (177) 
-0.0234652

>  <r_i_glide_metal>  (177) 
-0

>  <r_i_glide_rewards>  (177) 
-0.554538

>  <r_i_glide_evdw>  (177) 
-18.9495

>  <r_i_glide_ecoul>  (177) 
-2.50031

>  <r_i_glide_erotb>  (177) 
0

>  <r_i_glide_esite>  (177) 
-0.000787856

>  <r_i_glide_emodel>  (177) 
-21.1784

>  <r_i_glide_energy>  (177) 
-21.4499

>  <r_i_glide_einternal>  (177) 
4.38201

>  <r_i_glide_intrahb_reward>  (177) 
-0

>  <i_i_glide_confnum>  (177) 
2

>  <i_i_glide_posenum>  (177) 
37

>  <r_i_glide_eff_state_penalty>  (177) 
0

>  <ligand_id>  (177) 
52

>  <original_smiles>  (177) 
COC12CCC3(CC1=O)C1C4C5CC6OC(O)C3(C5CCC1(O)C(O)C(O)C4(C)C)C62

>  <smiles>  (177) 
[H]OC1([H])OC2([H])C([H])([H])C3([H])C4([H])C5([H])C(O[H])(C([H])([H])C([H])([H])C3([H])C13C2([H])C1(OC([H])([H])[H])C(=O)C([H])([H])C53C([H])([H])C1([H])[H])C([H])(O[H])C([H])(O[H])C4(C([H])([H])[H])C([H])([H])[H]

$$$$
52:1:1
     RDKit          3D

 65 71  0  0  1  0  0  0  0  0999 V2000
    0.2389   -4.1188    4.5513 C   0  0  0  0  0  0  0  0  0  0  0  0
    1.5901   -3.9561    4.9699 O   0  0  0  0  0  0  0  0  0  0  0  0
    2.5015   -3.4176    4.0082 C   0  0  1  0  0  0  0  0  0  0  0  0
    2.1621   -1.9814    3.6201 C   0  0  0  0  0  0  0  0  0  0  0  0
    3.1934   -1.6219    2.5355 C   0  0  0  0  0  0  0  0  0  0  0  0
    4.3681   -2.7399    2.3407 C   0  0  2  0  0  0  0  0  0  0  0  0
    5.0342   -2.6067    3.7250 C   0  0  0  0  0  0  0  0  0  0  0  0
    3.9101   -3.0919    4.7119 C   0  0  0  0  0  0  0  0  0  0  0  0
    4.1107   -3.1991    5.9068 O   0  0  0  0  0  0  0  0  0  0  0  0
    4.7678   -2.3146    0.8650 C   0  0  2  0  0  0  0  0  0  0  0  0
    3.7309   -2.9764   -0.1928 C   0  0  2  0  0  0  0  0  0  0  0  0
    3.6120   -4.5604   -0.0986 C   0  0  2  0  0  0  0  0  0  0  0  0
    2.3207   -5.3222    0.4722 C   0  0  0  0  0  0  0  0  0  0  0  0
    2.2269   -5.5465    2.0725 C   0  0  1  0  0  0  0  0  0  0  0  0
    3.2211   -6.3784    2.7119 O   0  0  0  0  0  0  0  0  0  0  0  0
    4.2547   -5.5456    3.1901 C   0  0  1  0  0  0  0  0  0  0  0  0
    5.5230   -6.1441    3.1877 O   0  0  0  0  0  0  0  0  0  0  0  0
    4.0625   -4.3063    2.2074 C   0  0  2  0  0  0  0  0  0  0  0  0
    4.5993   -5.0107    0.8779 C   0  0  2  0  0  0  0  0  0  0  0  0
    6.0943   -4.9741    0.4654 C   0  0  0  0  0  0  0  0  0  0  0  0
    6.8891   -3.7598    0.8675 C   0  0  0  0  0  0  0  0  0  0  0  0
    6.2391   -2.4541    0.4229 C   0  0  2  0  0  0  0  0  0  0  0  0
    6.9385   -1.4514    1.1107 O   0  0  0  0  0  0  0  0  0  0  0  0
    6.4234   -2.0486   -1.0709 C   0  0  1  0  0  0  0  0  0  0  0  0
    7.7385   -2.2592   -1.5211 O   0  0  0  0  0  0  0  0  0  0  0  0
    5.3960   -2.5247   -2.1174 C   0  0  1  0  0  0  0  0  0  0  0  0
    5.6892   -3.8018   -2.5839 O   0  0  0  0  0  0  0  0  0  0  0  0
    3.9375   -2.4071   -1.6459 C   0  0  0  0  0  0  0  0  0  0  0  0
    2.9399   -3.0093   -2.6630 C   0  0  0  0  0  0  0  0  0  0  0  0
    3.5998   -0.9019   -1.6675 C   0  0  0  0  0  0  0  0  0  0  0  0
    2.5807   -4.1749    2.5629 C   0  0  2  0  0  0  0  0  0  0  0  0
   -0.3863   -4.4968    5.3588 H   0  0  0  0  0  0  0  0  0  0  0  0
    0.1788   -4.8520    3.7571 H   0  0  0  0  0  0  0  0  0  0  0  0
   -0.2160   -3.2010    4.1846 H   0  0  0  0  0  0  0  0  0  0  0  0
    1.1582   -1.8690    3.2161 H   0  0  0  0  0  0  0  0  0  0  0  0
    2.2219   -1.3013    4.4749 H   0  0  0  0  0  0  0  0  0  0  0  0
    2.5996   -1.4273    1.6474 H   0  0  0  0  0  0  0  0  0  0  0  0
    3.6255   -0.6485    2.7704 H   0  0  0  0  0  0  0  0  0  0  0  0
    5.9029   -3.2544    3.8176 H   0  0  0  0  0  0  0  0  0  0  0  0
    5.3334   -1.5790    3.9451 H   0  0  0  0  0  0  0  0  0  0  0  0
    4.6160   -1.2369    0.7908 H   0  0  0  0  0  0  0  0  0  0  0  0
    2.7202   -2.6483    0.0379 H   0  0  0  0  0  0  0  0  0  0  0  0
    3.8590   -4.9851   -1.0543 H   0  0  0  0  0  0  0  0  0  0  0  0
    1.4744   -4.7696    0.0973 H   0  0  0  0  0  0  0  0  0  0  0  0
    2.2336   -6.2962    0.0109 H   0  0  0  0  0  0  0  0  0  0  0  0
    1.2373   -5.9304    2.3019 H   0  0  0  0  0  0  0  0  0  0  0  0
    3.9875   -5.4607    4.2487 H   0  0  0  0  0  0  0  0  0  0  0  0
    5.7576   -6.2986    2.2701 H   0  0  0  0  0  0  0  0  0  0  0  0
    4.4746   -6.0959    0.8625 H   0  0  0  0  0  0  0  0  0  0  0  0
    6.6131   -5.8338    0.8919 H   0  0  0  0  0  0  0  0  0  0  0  0
    6.1667   -5.1427   -0.6005 H   0  0  0  0  0  0  0  0  0  0  0  0
    7.0015   -3.7787    1.9500 H   0  0  0  0  0  0  0  0  0  0  0  0
    7.9028   -3.8391    0.4797 H   0  0  0  0  0  0  0  0  0  0  0  0
    6.8204   -1.5852    2.0515 H   0  0  0  0  0  0  0  0  0  0  0  0
    6.2887   -0.9733   -1.0713 H   0  0  0  0  0  0  0  0  0  0  0  0
    7.8229   -3.1730   -1.8078 H   0  0  0  0  0  0  0  0  0  0  0  0
    5.4881   -1.9132   -3.0101 H   0  0  0  0  0  0  0  0  0  0  0  0
    5.1486   -4.4273   -2.1218 H   0  0  0  0  0  0  0  0  0  0  0  0
    2.9891   -2.5101   -3.6310 H   0  0  0  0  0  0  0  0  0  0  0  0
    1.9063   -2.9480   -2.3114 H   0  0  0  0  0  0  0  0  0  0  0  0
    3.1555   -4.0407   -2.8860 H   0  0  0  0  0  0  0  0  0  0  0  0
    3.5906   -0.4950   -2.6841 H   0  0  0  0  0  0  0  0  0  0  0  0
    4.2920   -0.2878   -1.0945 H   0  0  0  0  0  0  0  0  0  0  0  0
    2.6168   -0.6972   -1.2541 H   0  0  0  0  0  0  0  0  0  0  0  0
    1.9736   -3.5679    1.8955 H   0  0  0  0  0  0  0  0  0  0  0  0
  1  2  1  0
  1 32  1  0
  1 33  1  0
  1 34  1  0
  3  2  1  1
  3  8  1  0
  3 31  1  0
  3  4  1  0
  4  5  1  0
  4 35  1  0
  4 36  1  0
  6  5  1  1
  5 37  1  0
  5 38  1  0
 18  6  1  1
  6  7  1  0
  6 10  1  0
  7  8  1  0
  7 39  1  0
  7 40  1  0
  8  9  2  0
 10 22  1  0
 10 11  1  0
 10 41  1  1
 11 28  1  0
 11 12  1  0
 11 42  1  1
 12 19  1  0
 12 13  1  0
 12 43  1  6
 13 14  1  0
 13 44  1  0
 13 45  1  0
 14 31  1  0
 14 15  1  0
 14 46  1  6
 15 16  1  0
 16 17  1  0
 16 18  1  0
 16 47  1  1
 17 48  1  0
 18 19  1  0
 18 31  1  0
 19 20  1  0
 19 49  1  1
 20 21  1  0
 20 50  1  0
 20 51  1  0
 21 22  1  0
 21 52  1  0
 21 53  1  0
 22 23  1  1
 22 24  1  0
 23 54  1  0
 24 25  1  0
 24 26  1  0
 24 55  1  1
 25 56  1  0
 26 27  1  0
 26 28  1  0
 26 57  1  6
 27 58  1  0
 28 29  1  0
 28 30  1  0
 29 59  1  0
 29 60  1  0
 29 61  1  0
 30 62  1  0
 30 63  1  0
 30 64  1  0
 31 65  1  6
M  END
>  <i_m_ct_stereo_status>  (178) 
1

>  <s_m_source_file>  (178) 
/var/tmp/pbs.5076255.sched01/tmp5eg4wc32/41mqp692j8.sdf

>  <i_m_source_file_index>  (178) 
35

>  <i_lp_mmshare_version>  (178) 
48012

>  <i_f3d_flags>  (178) 
0

>  <s_epik_input>  (178) 
W0NIM11PW0NAQF0oW0NIMl1bQ0gyXTEpKEMoPU8pW0NIMl0yKVtDQEhdM1tDQEhdKE9bQ0BIXTRbT0hdKVtDSDJdW0NIXShbQ0BASF01W0NAQF0zNFtDQEBdMTI2KVtDQEhdN1tDQEBIXTZbQ0BAXShbT0hdKShbQ0gyXVtDSDJdNSlbQ0BASF0oW09IXSlbQ0BASF0oW09IXSlDNyhbQ0gzXSlbQ0gzXQ==

>  <s_epik_cmdline>  (178) 
J2VwaWtfcHl0aG9uJywgJy1waHQnLCAnMi4wJywgJy1waCcsICc3LjAnLCAnLXRuJywgJzgnLCAnLW1hJywgJzIwMCcsICctaW1hZScsICc8aW5maWxlLm1hZT4nLCAnLW9tYWUnLCAnPG91dGZpbGUubWFlPic=

>  <r_lp_tautomer_probability>  (178) 
1

>  <r_epik_Ionization_Penalty>  (178) 
8.40014e-07

>  <r_epik_Ionization_Penalty_Charging>  (178) 
0

>  <r_epik_Ionization_Penalty_Neutral>  (178) 
8.40014e-07

>  <r_epik_State_Penalty>  (178) 
-0

>  <r_epik_Charging_Adjusted_Penalty>  (178) 
0

>  <i_epik_Tot_Q>  (178) 
0

>  <i_epik_Tot_abs_Q>  (178) 
0

>  <s_epik_Chemistry_Notes>  (178) 
This compound contains an acetal/aminal-like group ( X-CH(R)-Y where X, Y are N, S, or O) that may be acid/base labile, releasing an aldehyde.

>  <s_lp_Force_Field>  (178) 
OPLS3e

>  <r_lp_Energy>  (178) 
230.544

>  <b_lp_Chiralities_Consistent>  (178) 
1

>  <s_lp_Variant>  (178) 
52:0-2

>  <s_i_glide_gridfile>  (178) 
pfpi4k_grid

>  <i_i_glide_lignum>  (178) 
35

>  <i_i_glide_rotatable_bonds>  (178) 
5

>  <r_i_docking_score>  (178) 
-2.49667

>  <r_i_glide_ligand_efficiency>  (178) 
-0.0805377

>  <r_i_glide_ligand_efficiency_sa>  (178) 
-0.253

>  <r_i_glide_ligand_efficiency_ln>  (178) 
-0.563075

>  <r_i_glide_gscore>  (178) 
-2.49667

>  <r_i_glide_lipo>  (178) 
-0.457894

>  <r_i_glide_hbond>  (178) 
0

>  <r_i_glide_metal>  (178) 
-0

>  <r_i_glide_rewards>  (178) 
-0.446437

>  <r_i_glide_evdw>  (178) 
-13.7204

>  <r_i_glide_ecoul>  (178) 
-6.04212

>  <r_i_glide_erotb>  (178) 
0

>  <r_i_glide_esite>  (178) 
0

>  <r_i_glide_emodel>  (178) 
-20.1024

>  <r_i_glide_energy>  (178) 
-19.7625

>  <r_i_glide_einternal>  (178) 
3.19874

>  <r_i_glide_intrahb_reward>  (178) 
-0

>  <i_i_glide_confnum>  (178) 
1

>  <i_i_glide_posenum>  (178) 
28

>  <r_i_glide_eff_state_penalty>  (178) 
0

>  <ligand_id>  (178) 
52

>  <original_smiles>  (178) 
COC12CCC3(CC1=O)C1C4C5CC6OC(O)C3(C5CCC1(O)C(O)C(O)C4(C)C)C62

>  <smiles>  (178) 
[H]OC1([H])OC2([H])C([H])([H])C3([H])C4([H])C5([H])C(O[H])(C([H])([H])C([H])([H])C3([H])C13C2([H])C1(OC([H])([H])[H])C(=O)C([H])([H])C53C([H])([H])C1([H])[H])C([H])(O[H])C([H])(O[H])C4(C([H])([H])[H])C([H])([H])[H]

$$$$
52:1:2
     RDKit          3D

 65 71  0  0  1  0  0  0  0  0999 V2000
    0.2737   -2.6512    5.5211 C   0  0  0  0  0  0  0  0  0  0  0  0
    0.8343   -3.5288    4.5198 O   0  0  0  0  0  0  0  0  0  0  0  0
    1.9205   -3.0363    3.6979 C   0  0  1  0  0  0  0  0  0  0  0  0
    1.6139   -1.6559    3.1324 C   0  0  0  0  0  0  0  0  0  0  0  0
    2.7637   -1.3657    2.1624 C   0  0  0  0  0  0  0  0  0  0  0  0
    3.9434   -2.4946    2.1912 C   0  0  2  0  0  0  0  0  0  0  0  0
    4.4707   -2.2695    3.6207 C   0  0  0  0  0  0  0  0  0  0  0  0
    3.2538   -2.6833    4.5161 C   0  0  0  0  0  0  0  0  0  0  0  0
    3.3564   -2.7591    5.7325 O   0  0  0  0  0  0  0  0  0  0  0  0
    4.5031   -2.1646    0.7367 C   0  0  2  0  0  0  0  0  0  0  0  0
    3.5891   -2.8932   -0.3866 C   0  0  2  0  0  0  0  0  0  0  0  0
    3.4466   -4.4659   -0.1895 C   0  0  2  0  0  0  0  0  0  0  0  0
    2.0871   -5.1944    0.2595 C   0  0  0  0  0  0  0  0  0  0  0  0
    1.7922   -5.2778    1.8695 C   0  0  1  0  0  0  0  0  0  0  0  0
    2.6992   -6.0926    2.6555 O   0  0  0  0  0  0  0  0  0  0  0  0
    3.6900   -5.2335    3.1922 C   0  0  1  0  0  0  0  0  0  0  0  0
    4.9599   -5.8582    3.3627 O   0  0  0  0  0  0  0  0  0  0  0  0
    3.6476   -4.0688    2.1187 C   0  0  2  0  0  0  0  0  0  0  0  0
    4.3205   -4.8565    0.9142 C   0  0  2  0  0  0  0  0  0  0  0  0
    5.8508   -4.8458    0.6606 C   0  0  0  0  0  0  0  0  0  0  0  0
    6.5996   -3.6027    1.0808 C   0  0  0  0  0  0  0  0  0  0  0  0
    6.0192   -2.3291    0.4807 C   0  0  2  0  0  0  0  0  0  0  0  0
    6.6130   -1.2629    1.2043 O   0  0  0  0  0  0  0  0  0  0  0  0
    6.3794   -2.0326   -1.0031 C   0  0  1  0  0  0  0  0  0  0  0  0
    7.7270   -2.3448   -1.2988 O   0  0  0  0  0  0  0  0  0  0  0  0
    5.4591   -2.5524   -2.1258 C   0  0  1  0  0  0  0  0  0  0  0  0
    5.7468   -3.8536   -2.4735 O   0  0  0  0  0  0  0  0  0  0  0  0
    3.9666   -2.4128   -1.8340 C   0  0  0  0  0  0  0  0  0  0  0  0
    3.0893   -3.0696   -2.9257 C   0  0  0  0  0  0  0  0  0  0  0  0
    3.6531   -0.9187   -1.9977 C   0  0  0  0  0  0  0  0  0  0  0  0
    2.1599   -3.8920    2.3159 C   0  0  2  0  0  0  0  0  0  0  0  0
   -0.5780   -3.1293    6.0062 H   0  0  0  0  0  0  0  0  0  0  0  0
   -0.1145   -1.7223    5.0979 H   0  0  0  0  0  0  0  0  0  0  0  0
    0.9790   -2.3868    6.3101 H   0  0  0  0  0  0  0  0  0  0  0  0
    0.6363   -1.6298    2.6467 H   0  0  0  0  0  0  0  0  0  0  0  0
    1.6104   -0.8734    3.8988 H   0  0  0  0  0  0  0  0  0  0  0  0
    2.2774   -1.2207    1.1963 H   0  0  0  0  0  0  0  0  0  0  0  0
    3.1756   -0.3783    2.3898 H   0  0  0  0  0  0  0  0  0  0  0  0
    5.3293   -2.8999    3.8525 H   0  0  0  0  0  0  0  0  0  0  0  0
    4.7341   -1.2288    3.8070 H   0  0  0  0  0  0  0  0  0  0  0  0
    4.3724   -1.0944    0.5837 H   0  0  0  0  0  0  0  0  0  0  0  0
    2.5627   -2.5425   -0.2882 H   0  0  0  0  0  0  0  0  0  0  0  0
    3.8334   -4.9773   -1.0566 H   0  0  0  0  0  0  0  0  0  0  0  0
    1.3088   -4.6939   -0.3144 H   0  0  0  0  0  0  0  0  0  0  0  0
    2.0695   -6.2129   -0.1213 H   0  0  0  0  0  0  0  0  0  0  0  0
    0.7565   -5.5543    2.0958 H   0  0  0  0  0  0  0  0  0  0  0  0
    3.3122   -5.0879    4.2080 H   0  0  0  0  0  0  0  0  0  0  0  0
    5.2720   -6.0846    2.5031 H   0  0  0  0  0  0  0  0  0  0  0  0
    4.1714   -5.9373    0.9507 H   0  0  0  0  0  0  0  0  0  0  0  0
    6.3037   -5.6747    1.2047 H   0  0  0  0  0  0  0  0  0  0  0  0
    6.0560   -5.0986   -0.3727 H   0  0  0  0  0  0  0  0  0  0  0  0
    6.5813   -3.5578    2.1653 H   0  0  0  0  0  0  0  0  0  0  0  0
    7.6527   -3.7112    0.8251 H   0  0  0  0  0  0  0  0  0  0  0  0
    6.4646   -1.4035    2.1219 H   0  0  0  0  0  0  0  0  0  0  0  0
    6.2683   -0.9603   -1.0709 H   0  0  0  0  0  0  0  0  0  0  0  0
    7.8289   -3.2842   -1.3709 H   0  0  0  0  0  0  0  0  0  0  0  0
    5.6769   -2.0013   -3.0253 H   0  0  0  0  0  0  0  0  0  0  0  0
    5.3133   -4.4290   -1.8743 H   0  0  0  0  0  0  0  0  0  0  0  0
    3.2635   -2.6254   -3.9040 H   0  0  0  0  0  0  0  0  0  0  0  0
    2.0241   -2.9813   -2.7001 H   0  0  0  0  0  0  0  0  0  0  0  0
    3.3208   -4.1192   -3.0468 H   0  0  0  0  0  0  0  0  0  0  0  0
    3.7503   -0.5645   -3.0231 H   0  0  0  0  0  0  0  0  0  0  0  0
    4.2465   -0.2597   -1.3677 H   0  0  0  0  0  0  0  0  0  0  0  0
    2.6208   -0.7584   -1.7167 H   0  0  0  0  0  0  0  0  0  0  0  0
    1.6736   -3.3352    1.5340 H   0  0  0  0  0  0  0  0  0  0  0  0
  1  2  1  0
  1 32  1  0
  1 33  1  0
  1 34  1  0
  3  2  1  1
  3  8  1  0
  3 31  1  0
  3  4  1  0
  4  5  1  0
  4 35  1  0
  4 36  1  0
  6  5  1  1
  5 37  1  0
  5 38  1  0
 18  6  1  1
  6  7  1  0
  6 10  1  0
  7  8  1  0
  7 39  1  0
  7 40  1  0
  8  9  2  0
 10 22  1  0
 10 11  1  0
 10 41  1  6
 11 28  1  0
 11 12  1  0
 11 42  1  1
 12 19  1  0
 12 13  1  0
 12 43  1  6
 13 14  1  0
 13 44  1  0
 13 45  1  0
 14 31  1  0
 14 15  1  0
 14 46  1  6
 15 16  1  0
 16 17  1  0
 16 18  1  0
 16 47  1  1
 17 48  1  0
 18 19  1  0
 18 31  1  0
 19 20  1  0
 19 49  1  1
 20 21  1  0
 20 50  1  0
 20 51  1  0
 21 22  1  0
 21 52  1  0
 21 53  1  0
 22 23  1  1
 22 24  1  0
 23 54  1  0
 24 25  1  0
 24 26  1  0
 24 55  1  1
 25 56  1  0
 26 27  1  0
 26 28  1  0
 26 57  1  6
 27 58  1  0
 28 29  1  0
 28 30  1  0
 29 59  1  0
 29 60  1  0
 29 61  1  0
 30 62  1  0
 30 63  1  0
 30 64  1  0
 31 65  1  6
M  END
>  <i_m_ct_stereo_status>  (179) 
1

>  <s_m_source_file>  (179) 
/var/tmp/pbs.5076255.sched01/tmp5eg4wc32/41mqp692j8.sdf

>  <i_m_source_file_index>  (179) 
35

>  <i_lp_mmshare_version>  (179) 
48012

>  <i_f3d_flags>  (179) 
0

>  <s_epik_input>  (179) 
W0NIM11PW0NAQF0oW0NIMl1bQ0gyXTEpKEMoPU8pW0NIMl0yKVtDQEhdM1tDQEhdKE9bQ0BIXTRbT0hdKVtDSDJdW0NIXShbQ0BASF01W0NAQF0zNFtDQEBdMTI2KVtDQEhdN1tDQEBIXTZbQ0BAXShbT0hdKShbQ0gyXVtDSDJdNSlbQ0BASF0oW09IXSlbQ0BASF0oW09IXSlDNyhbQ0gzXSlbQ0gzXQ==

>  <s_epik_cmdline>  (179) 
J2VwaWtfcHl0aG9uJywgJy1waHQnLCAnMi4wJywgJy1waCcsICc3LjAnLCAnLXRuJywgJzgnLCAnLW1hJywgJzIwMCcsICctaW1hZScsICc8aW5maWxlLm1hZT4nLCAnLW9tYWUnLCAnPG91dGZpbGUubWFlPic=

>  <r_lp_tautomer_probability>  (179) 
1

>  <r_epik_Ionization_Penalty>  (179) 
8.40014e-07

>  <r_epik_Ionization_Penalty_Charging>  (179) 
0

>  <r_epik_Ionization_Penalty_Neutral>  (179) 
8.40014e-07

>  <r_epik_State_Penalty>  (179) 
-0

>  <r_epik_Charging_Adjusted_Penalty>  (179) 
0

>  <i_epik_Tot_Q>  (179) 
0

>  <i_epik_Tot_abs_Q>  (179) 
0

>  <s_epik_Chemistry_Notes>  (179) 
This compound contains an acetal/aminal-like group ( X-CH(R)-Y where X, Y are N, S, or O) that may be acid/base labile, releasing an aldehyde.

>  <s_lp_Force_Field>  (179) 
OPLS3e

>  <r_lp_Energy>  (179) 
230.544

>  <b_lp_Chiralities_Consistent>  (179) 
1

>  <s_lp_Variant>  (179) 
52:0-2

>  <s_i_glide_gridfile>  (179) 
pfpi4k_grid

>  <i_i_glide_lignum>  (179) 
35

>  <i_i_glide_rotatable_bonds>  (179) 
5

>  <r_i_docking_score>  (179) 
-2.1091

>  <r_i_glide_ligand_efficiency>  (179) 
-0.0680355

>  <r_i_glide_ligand_efficiency_sa>  (179) 
-0.213725

>  <r_i_glide_ligand_efficiency_ln>  (179) 
-0.475666

>  <r_i_glide_gscore>  (179) 
-2.1091

>  <r_i_glide_lipo>  (179) 
-0.34674

>  <r_i_glide_hbond>  (179) 
0

>  <r_i_glide_metal>  (179) 
-0

>  <r_i_glide_rewards>  (179) 
-0.446437

>  <r_i_glide_evdw>  (179) 
-16.6618

>  <r_i_glide_ecoul>  (179) 
-3.21888

>  <r_i_glide_erotb>  (179) 
0

>  <r_i_glide_esite>  (179) 
0

>  <r_i_glide_emodel>  (179) 
-19.7589

>  <r_i_glide_energy>  (179) 
-19.8807

>  <r_i_glide_einternal>  (179) 
3.27847

>  <r_i_glide_intrahb_reward>  (179) 
-0

>  <i_i_glide_confnum>  (179) 
1

>  <i_i_glide_posenum>  (179) 
2

>  <r_i_glide_eff_state_penalty>  (179) 
0

>  <ligand_id>  (179) 
52

>  <original_smiles>  (179) 
COC12CCC3(CC1=O)C1C4C5CC6OC(O)C3(C5CCC1(O)C(O)C(O)C4(C)C)C62

>  <smiles>  (179) 
[H]OC1([H])OC2([H])C([H])([H])C3([H])C4([H])C5([H])C(O[H])(C([H])([H])C([H])([H])C3([H])C13C2([H])C1(OC([H])([H])[H])C(=O)C([H])([H])C53C([H])([H])C1([H])[H])C([H])(O[H])C([H])(O[H])C4(C([H])([H])[H])C([H])([H])[H]

$$$$
53:0:0
     RDKit          3D

 88 97  0  0  1  0  0  0  0  0999 V2000
    3.2685    5.0235    2.9311 C   0  0  0  0  0  0  0  0  0  0  0  0
    2.8536    4.3612    4.1338 O   0  0  0  0  0  0  0  0  0  0  0  0
    2.1392    3.1358    3.9749 C   0  0  2  0  0  0  0  0  0  0  0  0
    0.7990    3.4449    3.1248 C   0  0  0  0  0  0  0  0  0  0  0  0
   -0.5972    2.7506    3.4123 C   0  0  2  0  0  0  0  0  0  0  0  0
   -2.0329    3.1404    4.2164 C   0  0  0  0  0  0  0  0  0  0  0  0
   -1.7885    3.1114    5.8652 C   0  0  1  0  0  0  0  0  0  0  0  0
   -1.3259    2.0039    7.0374 C   0  0  1  0  0  0  0  0  0  0  0  0
   -1.4799    0.5404    7.0213 O   0  0  0  0  0  0  0  0  0  0  0  0
   -0.6204   -0.4971    6.5410 C   0  0  2  0  0  0  0  0  0  0  0  0
   -1.3590   -1.3601    5.6802 O   0  0  0  0  0  0  0  0  0  0  0  0
   -0.1350   -1.3734    7.5193 O   0  0  0  0  0  0  0  0  0  0  0  0
    0.8548   -2.2157    6.8469 C   0  0  1  0  0  0  0  0  0  0  0  0
    1.5323   -1.3136    5.9501 C   0  0  1  0  0  0  0  0  0  0  0  0
    0.7601   -0.0115    5.9898 C   0  0  1  0  0  0  0  0  0  0  0  0
    0.9916    1.1545    4.9220 C   0  0  1  0  0  0  0  0  0  0  0  0
   -0.2638    2.0090    4.6063 C   0  0  2  0  0  0  0  0  0  0  0  0
   -1.2694    0.8069    4.1321 C   0  0  0  0  0  0  0  0  0  0  0  0
   -0.4698    3.4840    5.4804 C   0  0  1  0  0  0  0  0  0  0  0  0
   -0.5698    4.8684    4.9447 O   0  0  0  0  0  0  0  0  0  0  0  0
    0.4612    4.1823    6.4993 C   0  0  0  0  0  0  0  0  0  0  0  0
    1.0052    3.2722    7.4864 C   0  0  1  0  0  0  0  0  0  0  0  0
   -0.2256    2.5172    8.1186 C   0  0  1  0  0  0  0  0  0  0  0  0
   -1.0271    3.5515    8.9918 C   0  0  0  0  0  0  0  0  0  0  0  0
    0.3647    1.5705    9.2198 C   0  0  1  0  0  0  0  0  0  0  0  0
   -0.5675    0.6087    9.6804 O   0  0  0  0  0  0  0  0  0  0  0  0
    1.7651    0.9435    9.0109 C   0  0  0  0  0  0  0  0  0  0  0  0
    2.7802    1.6615    8.0644 C   0  0  1  0  0  0  0  0  0  0  0  0
    3.8256    0.7664    7.7417 O   0  0  0  0  0  0  0  0  0  0  0  0
    2.2936    2.6183    6.8668 C   0  0  2  0  0  0  0  0  0  0  0  0
    3.4530    3.6828    6.9103 C   0  0  0  0  0  0  0  0  0  0  0  0
    2.1562    2.1236    5.2706 C   0  0  2  0  0  0  0  0  0  0  0  0
    3.3279    1.3593    5.0322 O   0  0  0  0  0  0  0  0  0  0  0  0
    2.3585   -1.8938    7.1401 C   0  0  2  0  0  0  0  0  0  0  0  0
    3.6913   -2.2672    6.4927 C   0  0  0  0  0  0  0  0  0  0  0  0
    2.2592   -2.7501    8.4205 C   0  0  0  0  0  0  0  0  0  0  0  0
    1.5135   -4.0749    8.1283 C   0  0  2  0  0  0  0  0  0  0  0  0
    2.3874   -5.1242    7.7134 O   0  0  0  0  0  0  0  0  0  0  0  0
    2.2569   -5.4770    6.4380 C   0  0  0  0  0  0  0  0  0  0  0  0
    2.8665   -6.3601    5.8374 O   0  0  0  0  0  0  0  0  0  0  0  0
    1.2066   -4.5706    5.8304 C   0  0  0  0  0  0  0  0  0  0  0  0
    0.8345   -4.5638    4.6604 O   0  0  0  0  0  0  0  0  0  0  0  0
    0.6108   -3.7283    6.9471 C   0  0  2  0  0  0  0  0  0  0  0  0
   -0.8628   -4.0952    7.1671 C   0  0  0  0  0  0  0  0  0  0  0  0
    3.9143    5.8667    3.1825 H   0  0  0  0  0  0  0  0  0  0  0  0
    2.4424    5.4459    2.3555 H   0  0  0  0  0  0  0  0  0  0  0  0
    3.8117    4.3623    2.2645 H   0  0  0  0  0  0  0  0  0  0  0  0
    2.7380    2.5986    3.2345 H   0  0  0  0  0  0  0  0  0  0  0  0
    0.6241    4.5022    2.9361 H   0  0  0  0  0  0  0  0  0  0  0  0
    1.0791    3.0761    2.1366 H   0  0  0  0  0  0  0  0  0  0  0  0
   -0.8024    2.3144    2.4328 H   0  0  0  0  0  0  0  0  0  0  0  0
   -2.4247    4.0905    3.8465 H   0  0  0  0  0  0  0  0  0  0  0  0
   -2.9022    2.5383    3.9624 H   0  0  0  0  0  0  0  0  0  0  0  0
   -2.3386    3.9350    6.3232 H   0  0  0  0  0  0  0  0  0  0  0  0
   -2.2506    2.0846    7.6074 H   0  0  0  0  0  0  0  0  0  0  0  0
   -1.3272   -0.9841    4.8187 H   0  0  0  0  0  0  0  0  0  0  0  0
    1.6348   -1.7379    4.9536 H   0  0  0  0  0  0  0  0  0  0  0  0
    1.1356    0.4653    6.8391 H   0  0  0  0  0  0  0  0  0  0  0  0
    1.2601    0.6668    3.9784 H   0  0  0  0  0  0  0  0  0  0  0  0
   -2.1258    0.6453    4.7859 H   0  0  0  0  0  0  0  0  0  0  0  0
   -0.7328   -0.0958    3.8489 H   0  0  0  0  0  0  0  0  0  0  0  0
   -1.8064    0.8595    3.1857 H   0  0  0  0  0  0  0  0  0  0  0  0
    0.2091    5.0385    4.4374 H   0  0  0  0  0  0  0  0  0  0  0  0
    1.2842    4.7315    6.0409 H   0  0  0  0  0  0  0  0  0  0  0  0
   -0.0659    4.9614    7.0616 H   0  0  0  0  0  0  0  0  0  0  0  0
    1.3911    3.8889    8.3005 H   0  0  0  0  0  0  0  0  0  0  0  0
   -0.3820    4.1339    9.6501 H   0  0  0  0  0  0  0  0  0  0  0  0
   -1.7502    3.0496    9.6386 H   0  0  0  0  0  0  0  0  0  0  0  0
   -1.6012    4.2696    8.4109 H   0  0  0  0  0  0  0  0  0  0  0  0
    0.5344    2.1879   10.1026 H   0  0  0  0  0  0  0  0  0  0  0  0
   -0.5311    0.5719   10.6240 H   0  0  0  0  0  0  0  0  0  0  0  0
    2.2385    0.8623    9.9904 H   0  0  0  0  0  0  0  0  0  0  0  0
    1.6511   -0.0925    8.7395 H   0  0  0  0  0  0  0  0  0  0  0  0
    3.2764    2.2949    8.7975 H   0  0  0  0  0  0  0  0  0  0  0  0
    4.4731    1.2299    7.2377 H   0  0  0  0  0  0  0  0  0  0  0  0
    4.4047    3.2529    6.5961 H   0  0  0  0  0  0  0  0  0  0  0  0
    3.6122    4.0968    7.9064 H   0  0  0  0  0  0  0  0  0  0  0  0
    3.3081    4.5794    6.3224 H   0  0  0  0  0  0  0  0  0  0  0  0
    3.3372    1.1091    4.1250 H   0  0  0  0  0  0  0  0  0  0  0  0
    4.4803   -2.3291    7.2422 H   0  0  0  0  0  0  0  0  0  0  0  0
    3.9925   -1.4921    5.7927 H   0  0  0  0  0  0  0  0  0  0  0  0
    3.6478   -3.2031    5.9487 H   0  0  0  0  0  0  0  0  0  0  0  0
    3.2269   -2.9252    8.8980 H   0  0  0  0  0  0  0  0  0  0  0  0
    1.6703   -2.2057    9.1587 H   0  0  0  0  0  0  0  0  0  0  0  0
    0.9415   -4.4133    8.9932 H   0  0  0  0  0  0  0  0  0  0  0  0
   -1.2533   -3.6153    8.0594 H   0  0  0  0  0  0  0  0  0  0  0  0
   -0.9899   -5.1684    7.2790 H   0  0  0  0  0  0  0  0  0  0  0  0
   -1.4688   -3.7846    6.3245 H   0  0  0  0  0  0  0  0  0  0  0  0
  1  2  1  0
  1 45  1  0
  1 46  1  0
  1 47  1  0
  2  3  1  0
  3 32  1  0
  3  4  1  0
  3 48  1  6
  4  5  1  0
  4 49  1  0
  4 50  1  0
  5 17  1  0
  5  6  1  0
  5 51  1  6
  6  7  1  0
  6 52  1  0
  6 53  1  0
  7 19  1  0
  7  8  1  0
  7 54  1  1
  8 23  1  0
  8  9  1  0
  8 55  1  1
  9 10  1  0
 10 15  1  0
 10 11  1  6
 10 12  1  0
 11 56  1  0
 13 12  1  1
 13 34  1  0
 13 43  1  0
 13 14  1  0
 14 15  1  0
 14 34  1  0
 14 57  1  6
 15 16  1  0
 15 58  1  1
 16 32  1  0
 16 17  1  0
 16 59  1  6
 17 18  1  1
 17 19  1  0
 18 60  1  0
 18 61  1  0
 18 62  1  0
 19 20  1  6
 19 21  1  0
 20 63  1  0
 21 22  1  0
 21 64  1  0
 21 65  1  0
 22 30  1  0
 22 23  1  0
 22 66  1  1
 23 24  1  1
 23 25  1  0
 24 67  1  0
 24 68  1  0
 24 69  1  0
 25 26  1  0
 25 27  1  0
 25 70  1  1
 26 71  1  0
 27 28  1  0
 27 72  1  0
 27 73  1  0
 28 29  1  0
 28 30  1  0
 28 74  1  1
 29 75  1  0
 30 31  1  6
 30 32  1  0
 31 76  1  0
 31 77  1  0
 31 78  1  0
 32 33  1  6
 33 79  1  0
 34 35  1  6
 34 36  1  0
 35 80  1  0
 35 81  1  0
 35 82  1  0
 36 37  1  0
 36 83  1  0
 36 84  1  0
 37 43  1  0
 37 38  1  0
 37 85  1  1
 38 39  1  0
 39 40  2  0
 39 41  1  0
 41 42  2  0
 41 43  1  0
 43 44  1  1
 44 86  1  0
 44 87  1  0
 44 88  1  0
M  END
>  <i_m_ct_stereo_status>  (180) 
1

>  <s_m_source_file>  (180) 
/var/tmp/pbs.5076255.sched01/tmp5eg4wc32/41mqp692j8.sdf

>  <i_m_source_file_index>  (180) 
36

>  <i_lp_mmshare_version>  (180) 
48012

>  <i_f3d_flags>  (180) 
0

>  <s_epik_input>  (180) 
W09IXVtDQEBIXTFbQ0gyXVtDQEhdKFtPSF0pW0NAQF0yKFtDSDNdKVtDQEhdKFtDSDJdMylbQ0BdMShbQ0gzXSlbQ0BdKFtDQEBIXTQ1KShbT0hdKVtDQEhdKE9bQ0gzXSlbQ0gyXVtDQEhdKFtDSDJdNilbQ0BdNShbQ0gzXSlbQ0BAXTMoW09IXSlbQ0BASF02W0NASF0yT1tDQEBdKE83KShbT0hdKVtDQEhdNFtDQEhdKFtDQF03ODkpW0NAQF04KFtDSDNdKVtDSDJdW0NASF0xW0NAXTkoW0NIM10pQyg9TylDKE8xKT1P

>  <s_epik_cmdline>  (180) 
J2VwaWtfcHl0aG9uJywgJy1waHQnLCAnMi4wJywgJy1waCcsICc3LjAnLCAnLXRuJywgJzgnLCAnLW1hJywgJzIwMCcsICctaW1hZScsICc8aW5maWxlLm1hZT4nLCAnLW9tYWUnLCAnPG91dGZpbGUubWFlPic=

>  <r_lp_tautomer_probability>  (180) 
1

>  <r_epik_Ionization_Penalty>  (180) 
8.70242e-05

>  <r_epik_Ionization_Penalty_Charging>  (180) 
0

>  <r_epik_Ionization_Penalty_Neutral>  (180) 
8.70242e-05

>  <r_epik_State_Penalty>  (180) 
-0

>  <r_epik_Charging_Adjusted_Penalty>  (180) 
0

>  <i_epik_Tot_Q>  (180) 
0

>  <i_epik_Tot_abs_Q>  (180) 
0

>  <s_epik_Chemistry_Notes>  (180) 
This compound has an ester and may undergo hydrolysis at high or low pH.

>  <s_lp_Force_Field>  (180) 
OPLS3e

>  <r_lp_Energy>  (180) 
505.515

>  <b_lp_Chiralities_Consistent>  (180) 
1

>  <s_lp_Variant>  (180) 
53:0-1

>  <s_i_glide_gridfile>  (180) 
pfpi4k_grid

>  <i_i_glide_lignum>  (180) 
36

>  <i_i_glide_rotatable_bonds>  (180) 
6

>  <r_i_docking_score>  (180) 
-2.75347

>  <r_i_glide_ligand_efficiency>  (180) 
-0.0625789

>  <r_i_glide_ligand_efficiency_sa>  (180) 
-0.220925

>  <r_i_glide_ligand_efficiency_ln>  (180) 
-0.575535

>  <r_i_glide_gscore>  (180) 
-2.75347

>  <r_i_glide_lipo>  (180) 
-0.134686

>  <r_i_glide_hbond>  (180) 
-0.183922

>  <r_i_glide_metal>  (180) 
-0

>  <r_i_glide_rewards>  (180) 
0

>  <r_i_glide_evdw>  (180) 
-20.597

>  <r_i_glide_ecoul>  (180) 
-8.93345

>  <r_i_glide_erotb>  (180) 
0

>  <r_i_glide_esite>  (180) 
-0.064997

>  <r_i_glide_emodel>  (180) 
-32.7349

>  <r_i_glide_energy>  (180) 
-29.5304

>  <r_i_glide_einternal>  (180) 
4.58758

>  <r_i_glide_intrahb_reward>  (180) 
-0

>  <i_i_glide_confnum>  (180) 
2

>  <i_i_glide_posenum>  (180) 
13

>  <r_i_glide_eff_state_penalty>  (180) 
0

>  <ligand_id>  (180) 
53

>  <original_smiles>  (180) 
COC1CC2CC3C4OC5(O)OC67C(C5C5C2(C)C3(O)CC2C4(C)C(O)CC(O)C2(C)C15O)C6(C)CC1OC(=O)C(=O)C17C

>  <smiles>  (180) 
[H]OC12OC3([H])C4([H])C([H])([H])C5([H])C([H])([H])C([H])(OC([H])([H])[H])C6(O[H])C([H])(C1([H])C1([H])C7(O2)C2(C([H])([H])[H])C(=O)C(=O)OC2([H])C([H])([H])C17C([H])([H])[H])C5(C([H])([H])[H])C4(O[H])C([H])([H])C1([H])C3(C([H])([H])[H])C([H])(O[H])C([H])([H])C([H])(O[H])C16C([H])([H])[H]

$$$$
53:0:1
     RDKit          3D

 88 97  0  0  1  0  0  0  0  0999 V2000
    0.7539    6.1484    3.7945 C   0  0  0  0  0  0  0  0  0  0  0  0
   -0.0638    5.4324    4.7148 O   0  0  0  0  0  0  0  0  0  0  0  0
   -0.1783    4.0353    4.4651 C   0  0  2  0  0  0  0  0  0  0  0  0
   -1.7437    3.6917    4.6915 C   0  0  0  0  0  0  0  0  0  0  0  0
   -2.2181    2.3097    5.3401 C   0  0  2  0  0  0  0  0  0  0  0  0
   -2.7765    1.7767    6.8599 C   0  0  0  0  0  0  0  0  0  0  0  0
   -1.5116    1.7318    7.9455 C   0  0  1  0  0  0  0  0  0  0  0  0
   -0.0371    0.9431    8.1052 C   0  0  1  0  0  0  0  0  0  0  0  0
    0.3818   -0.3654    7.5855 O   0  0  0  0  0  0  0  0  0  0  0  0
    0.9748   -0.7251    6.3276 C   0  0  2  0  0  0  0  0  0  0  0  0
    0.2138   -1.7656    5.7088 O   0  0  0  0  0  0  0  0  0  0  0  0
    2.2534   -1.2818    6.4316 O   0  0  0  0  0  0  0  0  0  0  0  0
    2.7489   -1.3772    5.0473 C   0  0  1  0  0  0  0  0  0  0  0  0
    2.2791   -0.1849    4.4083 C   0  0  1  0  0  0  0  0  0  0  0  0
    1.3348    0.4845    5.3872 C   0  0  1  0  0  0  0  0  0  0  0  0
    0.3752    1.6798    4.9678 C   0  0  1  0  0  0  0  0  0  0  0  0
   -0.9581    1.7527    5.7502 C   0  0  2  0  0  0  0  0  0  0  0  0
   -1.5202    0.2453    5.4230 C   0  0  0  0  0  0  0  0  0  0  0  0
   -1.0318    2.7889    7.1215 C   0  0  1  0  0  0  0  0  0  0  0  0
   -1.9397    3.9424    7.3456 O   0  0  0  0  0  0  0  0  0  0  0  0
    0.0083    3.7875    7.6765 C   0  0  0  0  0  0  0  0  0  0  0  0
    1.3394    3.2294    7.7446 C   0  0  1  0  0  0  0  0  0  0  0  0
    1.2212    1.8766    8.5378 C   0  0  1  0  0  0  0  0  0  0  0  0
    0.9160    2.2354   10.0375 C   0  0  0  0  0  0  0  0  0  0  0  0
    2.6803    1.3111    8.6425 C   0  0  1  0  0  0  0  0  0  0  0  0
    2.7302   -0.0508    9.0292 O   0  0  0  0  0  0  0  0  0  0  0  0
    3.6770    1.5601    7.4887 C   0  0  0  0  0  0  0  0  0  0  0  0
    3.4573    2.7865    6.5591 C   0  0  1  0  0  0  0  0  0  0  0  0
    4.2169    2.6175    5.3815 O   0  0  0  0  0  0  0  0  0  0  0  0
    2.0077    3.4300    6.3405 C   0  0  2  0  0  0  0  0  0  0  0  0
    2.4417    4.9363    6.2516 C   0  0  0  0  0  0  0  0  0  0  0  0
    1.0393    3.0818    5.0118 C   0  0  2  0  0  0  0  0  0  0  0  0
    1.9090    3.0358    3.8923 O   0  0  0  0  0  0  0  0  0  0  0  0
    3.8120   -0.3147    4.6046 C   0  0  2  0  0  0  0  0  0  0  0  0
    4.3934    0.1457    3.2645 C   0  0  0  0  0  0  0  0  0  0  0  0
    4.9163   -1.1847    5.2449 C   0  0  0  0  0  0  0  0  0  0  0  0
    4.7201   -2.6716    4.8742 C   0  0  2  0  0  0  0  0  0  0  0  0
    5.3768   -3.0470    3.6652 O   0  0  0  0  0  0  0  0  0  0  0  0
    4.5722   -3.3045    2.6426 C   0  0  0  0  0  0  0  0  0  0  0  0
    4.8826   -3.6505    1.5051 O   0  0  0  0  0  0  0  0  0  0  0  0
    3.1596   -3.0603    3.1244 C   0  0  0  0  0  0  0  0  0  0  0  0
    2.1289   -3.1373    2.4721 O   0  0  0  0  0  0  0  0  0  0  0  0
    3.2171   -2.7900    4.6240 C   0  0  2  0  0  0  0  0  0  0  0  0
    2.5178   -3.9178    5.4027 C   0  0  0  0  0  0  0  0  0  0  0  0
    0.8528    7.1788    4.1353 H   0  0  0  0  0  0  0  0  0  0  0  0
    0.3346    6.1484    2.7882 H   0  0  0  0  0  0  0  0  0  0  0  0
    1.7566    5.7327    3.7277 H   0  0  0  0  0  0  0  0  0  0  0  0
   -0.1413    3.9566    3.3749 H   0  0  0  0  0  0  0  0  0  0  0  0
   -2.2936    4.5350    5.0934 H   0  0  0  0  0  0  0  0  0  0  0  0
   -2.1578    3.6604    3.6778 H   0  0  0  0  0  0  0  0  0  0  0  0
   -2.7748    1.9155    4.4881 H   0  0  0  0  0  0  0  0  0  0  0  0
   -3.6187    2.3879    7.1981 H   0  0  0  0  0  0  0  0  0  0  0  0
   -3.2952    0.8260    6.8855 H   0  0  0  0  0  0  0  0  0  0  0  0
   -1.8577    2.0769    8.9208 H   0  0  0  0  0  0  0  0  0  0  0  0
   -0.2881    0.4766    9.0545 H   0  0  0  0  0  0  0  0  0  0  0  0
    0.5901   -1.9386    4.8727 H   0  0  0  0  0  0  0  0  0  0  0  0
    1.8539   -0.3442    3.4266 H   0  0  0  0  0  0  0  0  0  0  0  0
    1.9645    1.0021    6.0434 H   0  0  0  0  0  0  0  0  0  0  0  0
    0.0897    1.4988    3.9268 H   0  0  0  0  0  0  0  0  0  0  0  0
   -1.5620   -0.3997    6.2943 H   0  0  0  0  0  0  0  0  0  0  0  0
   -1.0348   -0.2021    4.5588 H   0  0  0  0  0  0  0  0  0  0  0  0
   -2.5356    0.0765    5.0591 H   0  0  0  0  0  0  0  0  0  0  0  0
   -1.8909    4.1933    8.2464 H   0  0  0  0  0  0  0  0  0  0  0  0
    0.0479    4.7224    7.1188 H   0  0  0  0  0  0  0  0  0  0  0  0
   -0.2336    4.1060    8.6954 H   0  0  0  0  0  0  0  0  0  0  0  0
    1.9134    3.8845    8.4036 H   0  0  0  0  0  0  0  0  0  0  0  0
    1.5706    3.0165   10.4291 H   0  0  0  0  0  0  0  0  0  0  0  0
    1.0529    1.3646   10.6830 H   0  0  0  0  0  0  0  0  0  0  0  0
   -0.1036    2.5734   10.2135 H   0  0  0  0  0  0  0  0  0  0  0  0
    3.1654    1.8348    9.4680 H   0  0  0  0  0  0  0  0  0  0  0  0
    2.3544   -0.5707    8.3343 H   0  0  0  0  0  0  0  0  0  0  0  0
    4.6684    1.6635    7.9295 H   0  0  0  0  0  0  0  0  0  0  0  0
    3.7842    0.6604    6.9120 H   0  0  0  0  0  0  0  0  0  0  0  0
    4.0582    3.5115    7.1034 H   0  0  0  0  0  0  0  0  0  0  0  0
    3.6916    2.1490    4.7531 H   0  0  0  0  0  0  0  0  0  0  0  0
    3.0771    5.0987    5.3817 H   0  0  0  0  0  0  0  0  0  0  0  0
    3.0268    5.2729    7.1086 H   0  0  0  0  0  0  0  0  0  0  0  0
    1.6375    5.6591    6.2388 H   0  0  0  0  0  0  0  0  0  0  0  0
    1.3940    3.0862    3.1060 H   0  0  0  0  0  0  0  0  0  0  0  0
    5.4286    0.4610    3.3859 H   0  0  0  0  0  0  0  0  0  0  0  0
    3.8428    1.0055    2.9084 H   0  0  0  0  0  0  0  0  0  0  0  0
    4.3465   -0.6128    2.4984 H   0  0  0  0  0  0  0  0  0  0  0  0
    5.9208   -0.8355    5.0102 H   0  0  0  0  0  0  0  0  0  0  0  0
    4.8248   -1.1122    6.3305 H   0  0  0  0  0  0  0  0  0  0  0  0
    5.0470   -3.3372    5.6737 H   0  0  0  0  0  0  0  0  0  0  0  0
    2.6767   -3.8020    6.4685 H   0  0  0  0  0  0  0  0  0  0  0  0
    2.9038   -4.8846    5.1100 H   0  0  0  0  0  0  0  0  0  0  0  0
    1.4522   -3.9296    5.2209 H   0  0  0  0  0  0  0  0  0  0  0  0
  1  2  1  0
  1 45  1  0
  1 46  1  0
  1 47  1  0
  2  3  1  0
  3 32  1  0
  3  4  1  0
  3 48  1  6
  4  5  1  0
  4 49  1  0
  4 50  1  0
  5 17  1  0
  5  6  1  0
  5 51  1  6
  6  7  1  0
  6 52  1  0
  6 53  1  0
  7 19  1  0
  7  8  1  0
  7 54  1  1
  8 23  1  0
  8  9  1  0
  8 55  1  1
  9 10  1  0
 10 15  1  0
 10 11  1  6
 10 12  1  0
 11 56  1  0
 13 12  1  1
 13 34  1  0
 13 43  1  0
 13 14  1  0
 14 15  1  0
 14 34  1  0
 14 57  1  6
 15 16  1  0
 15 58  1  1
 16 32  1  0
 16 17  1  0
 16 59  1  6
 17 18  1  1
 17 19  1  0
 18 60  1  0
 18 61  1  0
 18 62  1  0
 19 20  1  6
 19 21  1  0
 20 63  1  0
 21 22  1  0
 21 64  1  0
 21 65  1  0
 22 30  1  0
 22 23  1  0
 22 66  1  1
 23 24  1  1
 23 25  1  0
 24 67  1  0
 24 68  1  0
 24 69  1  0
 25 26  1  0
 25 27  1  0
 25 70  1  1
 26 71  1  0
 27 28  1  0
 27 72  1  0
 27 73  1  0
 28 29  1  0
 28 30  1  0
 28 74  1  1
 29 75  1  0
 30 31  1  6
 30 32  1  0
 31 76  1  0
 31 77  1  0
 31 78  1  0
 32 33  1  6
 33 79  1  0
 34 35  1  6
 34 36  1  0
 35 80  1  0
 35 81  1  0
 35 82  1  0
 36 37  1  0
 36 83  1  0
 36 84  1  0
 37 43  1  0
 37 38  1  0
 37 85  1  1
 38 39  1  0
 39 40  2  0
 39 41  1  0
 41 42  2  0
 41 43  1  0
 43 44  1  1
 44 86  1  0
 44 87  1  0
 44 88  1  0
M  END
>  <i_m_ct_stereo_status>  (181) 
1

>  <s_m_source_file>  (181) 
/var/tmp/pbs.5076255.sched01/tmp5eg4wc32/41mqp692j8.sdf

>  <i_m_source_file_index>  (181) 
36

>  <i_lp_mmshare_version>  (181) 
48012

>  <i_f3d_flags>  (181) 
0

>  <s_epik_input>  (181) 
W09IXVtDQEBIXTFbQ0gyXVtDQEhdKFtPSF0pW0NAQF0yKFtDSDNdKVtDQEhdKFtDSDJdMylbQ0BdMShbQ0gzXSlbQ0BdKFtDQEBIXTQ1KShbT0hdKVtDQEhdKE9bQ0gzXSlbQ0gyXVtDQEhdKFtDSDJdNilbQ0BdNShbQ0gzXSlbQ0BAXTMoW09IXSlbQ0BASF02W0NASF0yT1tDQEBdKE83KShbT0hdKVtDQEhdNFtDQEhdKFtDQF03ODkpW0NAQF04KFtDSDNdKVtDSDJdW0NASF0xW0NAXTkoW0NIM10pQyg9TylDKE8xKT1P

>  <s_epik_cmdline>  (181) 
J2VwaWtfcHl0aG9uJywgJy1waHQnLCAnMi4wJywgJy1waCcsICc3LjAnLCAnLXRuJywgJzgnLCAnLW1hJywgJzIwMCcsICctaW1hZScsICc8aW5maWxlLm1hZT4nLCAnLW9tYWUnLCAnPG91dGZpbGUubWFlPic=

>  <r_lp_tautomer_probability>  (181) 
1

>  <r_epik_Ionization_Penalty>  (181) 
8.70242e-05

>  <r_epik_Ionization_Penalty_Charging>  (181) 
0

>  <r_epik_Ionization_Penalty_Neutral>  (181) 
8.70242e-05

>  <r_epik_State_Penalty>  (181) 
-0

>  <r_epik_Charging_Adjusted_Penalty>  (181) 
0

>  <i_epik_Tot_Q>  (181) 
0

>  <i_epik_Tot_abs_Q>  (181) 
0

>  <s_epik_Chemistry_Notes>  (181) 
This compound has an ester and may undergo hydrolysis at high or low pH.

>  <s_lp_Force_Field>  (181) 
OPLS3e

>  <r_lp_Energy>  (181) 
505.515

>  <b_lp_Chiralities_Consistent>  (181) 
1

>  <s_lp_Variant>  (181) 
53:0-1

>  <s_i_glide_gridfile>  (181) 
pfpi4k_grid

>  <i_i_glide_lignum>  (181) 
36

>  <i_i_glide_rotatable_bonds>  (181) 
6

>  <r_i_docking_score>  (181) 
-2.17607

>  <r_i_glide_ligand_efficiency>  (181) 
-0.0494561

>  <r_i_glide_ligand_efficiency_sa>  (181) 
-0.174597

>  <r_i_glide_ligand_efficiency_ln>  (181) 
-0.454846

>  <r_i_glide_gscore>  (181) 
-2.17607

>  <r_i_glide_lipo>  (181) 
-0.0774389

>  <r_i_glide_hbond>  (181) 
0

>  <r_i_glide_metal>  (181) 
-0

>  <r_i_glide_rewards>  (181) 
-0.532359

>  <r_i_glide_evdw>  (181) 
-20.9332

>  <r_i_glide_ecoul>  (181) 
-3.43773

>  <r_i_glide_erotb>  (181) 
0

>  <r_i_glide_esite>  (181) 
-0.00395326

>  <r_i_glide_emodel>  (181) 
-32.6662

>  <r_i_glide_energy>  (181) 
-24.3709

>  <r_i_glide_einternal>  (181) 
1.89189

>  <r_i_glide_intrahb_reward>  (181) 
-0.5

>  <i_i_glide_confnum>  (181) 
2

>  <i_i_glide_posenum>  (181) 
4

>  <r_i_glide_eff_state_penalty>  (181) 
0

>  <ligand_id>  (181) 
53

>  <original_smiles>  (181) 
COC1CC2CC3C4OC5(O)OC67C(C5C5C2(C)C3(O)CC2C4(C)C(O)CC(O)C2(C)C15O)C6(C)CC1OC(=O)C(=O)C17C

>  <smiles>  (181) 
[H]OC12OC3([H])C4([H])C([H])([H])C5([H])C([H])([H])C([H])(OC([H])([H])[H])C6(O[H])C([H])(C1([H])C1([H])C7(O2)C2(C([H])([H])[H])C(=O)C(=O)OC2([H])C([H])([H])C17C([H])([H])[H])C5(C([H])([H])[H])C4(O[H])C([H])([H])C1([H])C3(C([H])([H])[H])C([H])(O[H])C([H])([H])C([H])(O[H])C16C([H])([H])[H]

$$$$
53:0:2
     RDKit          3D

 88 97  0  0  1  0  0  0  0  0999 V2000
    2.3623   -8.3629    8.9622 C   0  0  0  0  0  0  0  0  0  0  0  0
    2.0345   -9.0285    7.7482 O   0  0  0  0  0  0  0  0  0  0  0  0
    1.5689   -8.2054    6.6856 C   0  0  2  0  0  0  0  0  0  0  0  0
    0.3239   -9.0098    6.0161 C   0  0  0  0  0  0  0  0  0  0  0  0
    0.0450   -8.9783    4.4396 C   0  0  2  0  0  0  0  0  0  0  0  0
    0.3159   -9.9968    3.1149 C   0  0  0  0  0  0  0  0  0  0  0  0
    1.9373  -10.0290    2.7384 C   0  0  1  0  0  0  0  0  0  0  0  0
    3.1317   -8.9508    2.2396 C   0  0  1  0  0  0  0  0  0  0  0  0
    3.0067   -7.7019    1.4885 O   0  0  0  0  0  0  0  0  0  0  0  0
    2.7666   -6.3666    1.9263 C   0  0  2  0  0  0  0  0  0  0  0  0
    1.6646   -5.8465    1.2080 O   0  0  0  0  0  0  0  0  0  0  0  0
    3.7867   -5.4504    1.6433 O   0  0  0  0  0  0  0  0  0  0  0  0
    3.4648   -4.2056    2.3443 C   0  0  1  0  0  0  0  0  0  0  0  0
    2.9009   -4.6566    3.6000 C   0  0  1  0  0  0  0  0  0  0  0  0
    2.7534   -6.1653    3.4817 C   0  0  1  0  0  0  0  0  0  0  0  0
    1.9132   -7.0185    4.5462 C   0  0  1  0  0  0  0  0  0  0  0  0
    1.2245   -8.2833    3.9781 C   0  0  2  0  0  0  0  0  0  0  0  0
    0.3615   -7.5656    2.7798 C   0  0  0  0  0  0  0  0  0  0  0  0
    2.0626   -9.7825    4.1325 C   0  0  1  0  0  0  0  0  0  0  0  0
    1.6259  -11.0317    4.8135 O   0  0  0  0  0  0  0  0  0  0  0  0
    3.3863  -10.1229    4.8480 C   0  0  0  0  0  0  0  0  0  0  0  0
    4.4490   -9.1766    4.5695 C   0  0  1  0  0  0  0  0  0  0  0  0
    4.5588   -9.0670    3.0068 C   0  0  1  0  0  0  0  0  0  0  0  0
    5.1535  -10.4196    2.4772 C   0  0  0  0  0  0  0  0  0  0  0  0
    5.7432   -8.0738    2.7272 C   0  0  1  0  0  0  0  0  0  0  0  0
    5.8017   -7.6235    1.3894 O   0  0  0  0  0  0  0  0  0  0  0  0
    5.9935   -6.9004    3.6988 C   0  0  0  0  0  0  0  0  0  0  0  0
    5.5148   -7.0310    5.1736 C   0  0  1  0  0  0  0  0  0  0  0  0
    5.5026   -5.7553    5.7768 O   0  0  0  0  0  0  0  0  0  0  0  0
    4.2951   -7.9875    5.5795 C   0  0  2  0  0  0  0  0  0  0  0  0
    4.8579   -8.4875    6.9573 C   0  0  0  0  0  0  0  0  0  0  0  0
    2.7217   -7.4282    5.8081 C   0  0  2  0  0  0  0  0  0  0  0  0
    2.8597   -6.1973    6.4972 O   0  0  0  0  0  0  0  0  0  0  0  0
    4.2862   -3.9020    3.6508 C   0  0  2  0  0  0  0  0  0  0  0  0
    4.1232   -2.9581    4.8322 C   0  0  0  0  0  0  0  0  0  0  0  0
    5.4034   -3.2892    2.7761 C   0  0  0  0  0  0  0  0  0  0  0  0
    4.7938   -2.3806    1.6811 C   0  0  2  0  0  0  0  0  0  0  0  0
    4.6657   -1.0226    2.0955 O   0  0  0  0  0  0  0  0  0  0  0  0
    3.4111   -0.6217    2.2780 C   0  0  0  0  0  0  0  0  0  0  0  0
    3.0220    0.4766    2.6379 O   0  0  0  0  0  0  0  0  0  0  0  0
    2.5145   -1.8188    2.0117 C   0  0  0  0  0  0  0  0  0  0  0  0
    1.3192   -1.8647    2.2216 O   0  0  0  0  0  0  0  0  0  0  0  0
    3.3898   -2.9486    1.4720 C   0  0  2  0  0  0  0  0  0  0  0  0
    3.0448   -3.2457   -0.0005 C   0  0  0  0  0  0  0  0  0  0  0  0
    2.7910   -9.0923    9.6498 H   0  0  0  0  0  0  0  0  0  0  0  0
    1.4893   -7.9142    9.4355 H   0  0  0  0  0  0  0  0  0  0  0  0
    3.1034   -7.5819    8.8096 H   0  0  0  0  0  0  0  0  0  0  0  0
    1.0138   -7.4112    7.1920 H   0  0  0  0  0  0  0  0  0  0  0  0
    0.2030  -10.0107    6.4338 H   0  0  0  0  0  0  0  0  0  0  0  0
   -0.5676   -8.5391    6.4324 H   0  0  0  0  0  0  0  0  0  0  0  0
   -0.9603   -8.5568    4.4064 H   0  0  0  0  0  0  0  0  0  0  0  0
   -0.1087  -10.9832    3.3174 H   0  0  0  0  0  0  0  0  0  0  0  0
   -0.2628   -9.7945    2.2119 H   0  0  0  0  0  0  0  0  0  0  0  0
    2.2280  -11.0484    2.5011 H   0  0  0  0  0  0  0  0  0  0  0  0
    3.3318   -9.4806    1.3106 H   0  0  0  0  0  0  0  0  0  0  0  0
    1.9579   -5.8403    0.3063 H   0  0  0  0  0  0  0  0  0  0  0  0
    1.9828   -4.1352    3.8914 H   0  0  0  0  0  0  0  0  0  0  0  0
    3.7088   -6.5354    3.6994 H   0  0  0  0  0  0  0  0  0  0  0  0
    1.0988   -6.3669    4.8926 H   0  0  0  0  0  0  0  0  0  0  0  0
    0.6857   -7.8482    1.7778 H   0  0  0  0  0  0  0  0  0  0  0  0
    0.2485   -6.4889    2.9227 H   0  0  0  0  0  0  0  0  0  0  0  0
   -0.7030   -7.7681    2.6458 H   0  0  0  0  0  0  0  0  0  0  0  0
    1.6584  -10.9222    5.7555 H   0  0  0  0  0  0  0  0  0  0  0  0
    3.2890  -10.2277    5.9296 H   0  0  0  0  0  0  0  0  0  0  0  0
    3.7708  -11.1000    4.5340 H   0  0  0  0  0  0  0  0  0  0  0  0
    5.3820   -9.6627    4.8698 H   0  0  0  0  0  0  0  0  0  0  0  0
    6.0295  -10.7451    3.0426 H   0  0  0  0  0  0  0  0  0  0  0  0
    5.4665  -10.3323    1.4347 H   0  0  0  0  0  0  0  0  0  0  0  0
    4.4460  -11.2493    2.4972 H   0  0  0  0  0  0  0  0  0  0  0  0
    6.6609   -8.6531    2.8381 H   0  0  0  0  0  0  0  0  0  0  0  0
    5.6555   -8.3655    0.8256 H   0  0  0  0  0  0  0  0  0  0  0  0
    7.0706   -6.7267    3.7234 H   0  0  0  0  0  0  0  0  0  0  0  0
    5.6295   -5.9912    3.2529 H   0  0  0  0  0  0  0  0  0  0  0  0
    6.4212   -7.4572    5.5986 H   0  0  0  0  0  0  0  0  0  0  0  0
    4.6515   -5.3729    5.6225 H   0  0  0  0  0  0  0  0  0  0  0  0
    4.9540   -7.6549    7.6541 H   0  0  0  0  0  0  0  0  0  0  0  0
    5.8514   -8.9381    6.8846 H   0  0  0  0  0  0  0  0  0  0  0  0
    4.2966   -9.2783    7.4342 H   0  0  0  0  0  0  0  0  0  0  0  0
    1.9924   -5.8665    6.6731 H   0  0  0  0  0  0  0  0  0  0  0  0
    5.0995   -2.6562    5.2041 H   0  0  0  0  0  0  0  0  0  0  0  0
    3.6220   -3.4557    5.6601 H   0  0  0  0  0  0  0  0  0  0  0  0
    3.5531   -2.0684    4.5912 H   0  0  0  0  0  0  0  0  0  0  0  0
    6.1902   -2.7627    3.3282 H   0  0  0  0  0  0  0  0  0  0  0  0
    5.9037   -4.1087    2.2708 H   0  0  0  0  0  0  0  0  0  0  0  0
    5.3800   -2.4124    0.7646 H   0  0  0  0  0  0  0  0  0  0  0  0
    3.7627   -3.9394   -0.4323 H   0  0  0  0  0  0  0  0  0  0  0  0
    3.0489   -2.3421   -0.6010 H   0  0  0  0  0  0  0  0  0  0  0  0
    2.0595   -3.6865   -0.1037 H   0  0  0  0  0  0  0  0  0  0  0  0
  1  2  1  0
  1 45  1  0
  1 46  1  0
  1 47  1  0
  2  3  1  0
  3 32  1  0
  3  4  1  0
  3 48  1  1
  4  5  1  0
  4 49  1  0
  4 50  1  0
  5 17  1  0
  5  6  1  0
  5 51  1  1
  6  7  1  0
  6 52  1  0
  6 53  1  0
  7 19  1  0
  7  8  1  0
  7 54  1  1
  8 23  1  0
  8  9  1  0
  8 55  1  6
  9 10  1  0
 10 15  1  0
 10 11  1  6
 10 12  1  0
 11 56  1  0
 13 12  1  6
 13 34  1  0
 13 43  1  0
 13 14  1  0
 14 15  1  0
 14 34  1  0
 14 57  1  1
 15 16  1  0
 15 58  1  1
 16 32  1  0
 16 17  1  0
 16 59  1  1
 17 18  1  6
 17 19  1  0
 18 60  1  0
 18 61  1  0
 18 62  1  0
 19 20  1  1
 19 21  1  0
 20 63  1  0
 21 22  1  0
 21 64  1  0
 21 65  1  0
 22 30  1  0
 22 23  1  0
 22 66  1  1
 23 24  1  6
 23 25  1  0
 24 67  1  0
 24 68  1  0
 24 69  1  0
 25 26  1  0
 25 27  1  0
 25 70  1  6
 26 71  1  0
 27 28  1  0
 27 72  1  0
 27 73  1  0
 28 29  1  0
 28 30  1  0
 28 74  1  1
 29 75  1  0
 30 31  1  1
 30 32  1  0
 31 76  1  0
 31 77  1  0
 31 78  1  0
 32 33  1  1
 33 79  1  0
 34 35  1  1
 34 36  1  0
 35 80  1  0
 35 81  1  0
 35 82  1  0
 36 37  1  0
 36 83  1  0
 36 84  1  0
 37 43  1  0
 37 38  1  0
 37 85  1  6
 38 39  1  0
 39 40  2  0
 39 41  1  0
 41 42  2  0
 41 43  1  0
 43 44  1  6
 44 86  1  0
 44 87  1  0
 44 88  1  0
M  END
>  <i_m_ct_stereo_status>  (182) 
1

>  <s_m_source_file>  (182) 
/var/tmp/pbs.5076255.sched01/tmp5eg4wc32/41mqp692j8.sdf

>  <i_m_source_file_index>  (182) 
36

>  <i_lp_mmshare_version>  (182) 
48012

>  <i_f3d_flags>  (182) 
0

>  <s_epik_input>  (182) 
W09IXVtDQEBIXTFbQ0gyXVtDQEhdKFtPSF0pW0NAQF0yKFtDSDNdKVtDQEhdKFtDSDJdMylbQ0BdMShbQ0gzXSlbQ0BdKFtDQEBIXTQ1KShbT0hdKVtDQEhdKE9bQ0gzXSlbQ0gyXVtDQEhdKFtDSDJdNilbQ0BdNShbQ0gzXSlbQ0BAXTMoW09IXSlbQ0BASF02W0NASF0yT1tDQEBdKE83KShbT0hdKVtDQEhdNFtDQEhdKFtDQF03ODkpW0NAQF04KFtDSDNdKVtDSDJdW0NASF0xW0NAXTkoW0NIM10pQyg9TylDKE8xKT1P

>  <s_epik_cmdline>  (182) 
J2VwaWtfcHl0aG9uJywgJy1waHQnLCAnMi4wJywgJy1waCcsICc3LjAnLCAnLXRuJywgJzgnLCAnLW1hJywgJzIwMCcsICctaW1hZScsICc8aW5maWxlLm1hZT4nLCAnLW9tYWUnLCAnPG91dGZpbGUubWFlPic=

>  <r_lp_tautomer_probability>  (182) 
1

>  <r_epik_Ionization_Penalty>  (182) 
8.70242e-05

>  <r_epik_Ionization_Penalty_Charging>  (182) 
0

>  <r_epik_Ionization_Penalty_Neutral>  (182) 
8.70242e-05

>  <r_epik_State_Penalty>  (182) 
-0

>  <r_epik_Charging_Adjusted_Penalty>  (182) 
0

>  <i_epik_Tot_Q>  (182) 
0

>  <i_epik_Tot_abs_Q>  (182) 
0

>  <s_epik_Chemistry_Notes>  (182) 
This compound has an ester and may undergo hydrolysis at high or low pH.

>  <s_lp_Force_Field>  (182) 
OPLS3e

>  <r_lp_Energy>  (182) 
505.515

>  <b_lp_Chiralities_Consistent>  (182) 
1

>  <s_lp_Variant>  (182) 
53:0-1

>  <s_i_glide_gridfile>  (182) 
pfpi4k_grid

>  <i_i_glide_lignum>  (182) 
36

>  <i_i_glide_rotatable_bonds>  (182) 
6

>  <r_i_docking_score>  (182) 
-1.94174

>  <r_i_glide_ligand_efficiency>  (182) 
-0.0441304

>  <r_i_glide_ligand_efficiency_sa>  (182) 
-0.155796

>  <r_i_glide_ligand_efficiency_ln>  (182) 
-0.405866

>  <r_i_glide_gscore>  (182) 
-1.94174

>  <r_i_glide_lipo>  (182) 
-0.157005

>  <r_i_glide_hbond>  (182) 
-0.0137879

>  <r_i_glide_metal>  (182) 
-0

>  <r_i_glide_rewards>  (182) 
-0.5

>  <r_i_glide_evdw>  (182) 
-25.9871

>  <r_i_glide_ecoul>  (182) 
0.40122

>  <r_i_glide_erotb>  (182) 
0

>  <r_i_glide_esite>  (182) 
-0.031773

>  <r_i_glide_emodel>  (182) 
-34.1276

>  <r_i_glide_energy>  (182) 
-25.5859

>  <r_i_glide_einternal>  (182) 
0.515326

>  <r_i_glide_intrahb_reward>  (182) 
-0.5

>  <i_i_glide_confnum>  (182) 
2

>  <i_i_glide_posenum>  (182) 
27

>  <r_i_glide_eff_state_penalty>  (182) 
0

>  <ligand_id>  (182) 
53

>  <original_smiles>  (182) 
COC1CC2CC3C4OC5(O)OC67C(C5C5C2(C)C3(O)CC2C4(C)C(O)CC(O)C2(C)C15O)C6(C)CC1OC(=O)C(=O)C17C

>  <smiles>  (182) 
[H]OC12OC3([H])C4([H])C([H])([H])C5([H])C([H])([H])C([H])(OC([H])([H])[H])C6(O[H])C([H])(C1([H])C1([H])C7(O2)C2(C([H])([H])[H])C(=O)C(=O)OC2([H])C([H])([H])C17C([H])([H])[H])C5(C([H])([H])[H])C4(O[H])C([H])([H])C1([H])C3(C([H])([H])[H])C([H])(O[H])C([H])([H])C([H])(O[H])C16C([H])([H])[H]

$$$$
54:0:0
     RDKit          3D

 23 25  0  0  1  0  0  0  0  0999 V2000
    3.1632   -0.5485   -3.7938 C   0  0  0  0  0  0  0  0  0  0  0  0
    3.8282   -1.3604   -2.7105 C   0  0  0  0  0  0  0  0  0  0  0  0
    4.9555   -1.0941   -2.2115 N   0  0  0  0  0  0  0  0  0  0  0  0
    5.3820   -2.1180   -1.2836 C   0  0  1  0  0  0  0  0  0  0  0  0
    6.6313   -2.7999   -1.8082 C   0  0  0  0  0  0  0  0  0  0  0  0
    7.6793   -2.6686   -0.9897 C   0  0  0  0  0  0  0  0  0  0  0  0
    7.3116   -1.9051    0.2300 C   0  0  2  0  0  0  0  0  0  0  0  0
    6.3323   -2.4309    1.2135 C   0  0  0  0  0  0  0  0  0  0  0  0
    5.8501   -1.5862    0.0726 C   0  0  2  0  0  0  0  0  0  0  0  0
    4.1769   -3.0567   -1.2366 C   0  0  0  0  0  0  0  0  0  0  0  0
    4.0881   -4.0633   -0.5276 O   0  0  0  0  0  0  0  0  0  0  0  0
    3.1059   -2.5710   -2.1765 C   0  0  0  0  0  0  0  0  0  0  0  0
    2.9379   -1.1730   -4.6603 H   0  0  0  0  0  0  0  0  0  0  0  0
    3.8156    0.2653   -4.1084 H   0  0  0  0  0  0  0  0  0  0  0  0
    2.2470   -0.1119   -3.4036 H   0  0  0  0  0  0  0  0  0  0  0  0
    6.6450   -3.3049   -2.7672 H   0  0  0  0  0  0  0  0  0  0  0  0
    8.6775   -3.0275   -1.1696 H   0  0  0  0  0  0  0  0  0  0  0  0
    7.9918   -1.0930    0.5122 H   0  0  0  0  0  0  0  0  0  0  0  0
    6.1243   -3.5009    1.1837 H   0  0  0  0  0  0  0  0  0  0  0  0
    6.3705   -1.9958    2.2097 H   0  0  0  0  0  0  0  0  0  0  0  0
    5.4427   -0.6062    0.3606 H   0  0  0  0  0  0  0  0  0  0  0  0
    2.2095   -2.2747   -1.6410 H   0  0  0  0  0  0  0  0  0  0  0  0
    2.8806   -3.3067   -2.9525 H   0  0  0  0  0  0  0  0  0  0  0  0
  1  2  1  0
  1 13  1  0
  1 14  1  0
  1 15  1  0
  2 12  1  0
  2  3  2  0
  4  3  1  6
  4  9  1  0
  4  5  1  0
  4 10  1  0
  5  6  2  0
  5 16  1  0
  6  7  1  0
  6 17  1  0
  7  9  1  0
  7  8  1  0
  7 18  1  1
  8  9  1  0
  8 19  1  0
  8 20  1  0
  9 21  1  1
 10 11  2  0
 10 12  1  0
 12 22  1  0
 12 23  1  0
M  END
>  <i_m_ct_stereo_status>  (183) 
1

>  <s_m_source_file>  (183) 
/var/tmp/pbs.5076255.sched01/tmp5eg4wc32/41mqp692j8.sdf

>  <i_m_source_file_index>  (183) 
37

>  <i_lp_mmshare_version>  (183) 
48012

>  <i_f3d_flags>  (183) 
0

>  <s_epik_input>  (183) 
Tz1DMVtDSDJdQyhbQ0gzXSk9TltDQEBdMTJbQ0BASF0zW0NASF0oW0NIMl0zKVtDSF09W0NIXTI=

>  <s_epik_cmdline>  (183) 
J2VwaWtfcHl0aG9uJywgJy1waHQnLCAnMi4wJywgJy1waCcsICc3LjAnLCAnLXRuJywgJzgnLCAnLW1hJywgJzIwMCcsICctaW1hZScsICc8aW5maWxlLm1hZT4nLCAnLW9tYWUnLCAnPG91dGZpbGUubWFlPic=

>  <r_lp_tautomer_probability>  (183) 
1

>  <r_epik_Ionization_Penalty>  (183) 
2.03662e-05

>  <r_epik_Ionization_Penalty_Charging>  (183) 
0

>  <r_epik_Ionization_Penalty_Neutral>  (183) 
2.03662e-05

>  <r_epik_State_Penalty>  (183) 
-0

>  <r_epik_Charging_Adjusted_Penalty>  (183) 
0

>  <i_epik_Tot_Q>  (183) 
0

>  <i_epik_Tot_abs_Q>  (183) 
0

>  <s_epik_Chemistry_Notes>  (183) 
This compound has an imine and may undergo hydrolysis.

>  <s_lp_Force_Field>  (183) 
OPLS3e

>  <r_lp_Energy>  (183) 
3.09562

>  <b_lp_Chiralities_Consistent>  (183) 
1

>  <s_lp_Variant>  (183) 
54:0-1

>  <s_i_glide_gridfile>  (183) 
pfpi4k_grid

>  <i_i_glide_lignum>  (183) 
37

>  <i_i_glide_rotatable_bonds>  (183) 
0

>  <r_i_docking_score>  (183) 
-3.86616

>  <r_i_glide_ligand_efficiency>  (183) 
-0.32218

>  <r_i_glide_ligand_efficiency_sa>  (183) 
-0.737609

>  <r_i_glide_ligand_efficiency_ln>  (183) 
-1.1094

>  <r_i_glide_gscore>  (183) 
-3.86616

>  <r_i_glide_lipo>  (183) 
-0.349674

>  <r_i_glide_hbond>  (183) 
0

>  <r_i_glide_metal>  (183) 
-0

>  <r_i_glide_rewards>  (183) 
-2.25

>  <r_i_glide_evdw>  (183) 
-18.6234

>  <r_i_glide_ecoul>  (183) 
-1.90144

>  <r_i_glide_erotb>  (183) 
0

>  <r_i_glide_esite>  (183) 
-0.0501025

>  <r_i_glide_emodel>  (183) 
-25.7473

>  <r_i_glide_energy>  (183) 
-20.5248

>  <r_i_glide_einternal>  (183) 
0

>  <r_i_glide_intrahb_reward>  (183) 
-0

>  <i_i_glide_confnum>  (183) 
1

>  <i_i_glide_posenum>  (183) 
15

>  <r_i_glide_eff_state_penalty>  (183) 
0

>  <ligand_id>  (183) 
54

>  <original_smiles>  (183) 
CC1=NC2(C=CC3CC32)C(=O)C1

>  <smiles>  (183) 
[H]C1=C([H])C2([H])C([H])([H])C2([H])C12N=C(C([H])([H])[H])C([H])([H])C2=O

$$$$
54:0:1
     RDKit          3D

 23 25  0  0  1  0  0  0  0  0999 V2000
    3.5701   -0.3807   -4.3564 C   0  0  0  0  0  0  0  0  0  0  0  0
    3.7169   -1.1168   -3.0480 C   0  0  0  0  0  0  0  0  0  0  0  0
    4.5341   -0.7863   -2.1361 N   0  0  0  0  0  0  0  0  0  0  0  0
    4.5321   -1.7441   -1.0446 C   0  0  1  0  0  0  0  0  0  0  0  0
    5.8808   -2.4069   -0.9372 C   0  0  0  0  0  0  0  0  0  0  0  0
    6.4682   -2.1833    0.2530 C   0  0  0  0  0  0  0  0  0  0  0  0
    5.6174   -1.3877    1.1401 C   0  0  2  0  0  0  0  0  0  0  0  0
    4.2940   -1.9062    1.6381 C   0  0  0  0  0  0  0  0  0  0  0  0
    4.3619   -1.1207    0.3349 C   0  0  2  0  0  0  0  0  0  0  0  0
    3.4238   -2.7186   -1.4581 C   0  0  0  0  0  0  0  0  0  0  0  0
    3.0415   -3.6812   -0.7909 O   0  0  0  0  0  0  0  0  0  0  0  0
    2.8608   -2.3201   -2.7984 C   0  0  0  0  0  0  0  0  0  0  0  0
    3.7615   -1.0547   -5.1901 H   0  0  0  0  0  0  0  0  0  0  0  0
    4.2735    0.4436   -4.4059 H   0  0  0  0  0  0  0  0  0  0  0  0
    2.5623    0.0235   -4.4345 H   0  0  0  0  0  0  0  0  0  0  0  0
    6.3077   -2.9742   -1.7556 H   0  0  0  0  0  0  0  0  0  0  0  0
    7.4350   -2.5335    0.5542 H   0  0  0  0  0  0  0  0  0  0  0  0
    6.0694   -0.5302    1.6331 H   0  0  0  0  0  0  0  0  0  0  0  0
    4.1265   -2.9747    1.5806 H   0  0  0  0  0  0  0  0  0  0  0  0
    3.8928   -1.4088    2.5259 H   0  0  0  0  0  0  0  0  0  0  0  0
    3.8745   -0.1707    0.3847 H   0  0  0  0  0  0  0  0  0  0  0  0
    1.8117   -2.0344   -2.7209 H   0  0  0  0  0  0  0  0  0  0  0  0
    2.9967   -3.1016   -3.5505 H   0  0  0  0  0  0  0  0  0  0  0  0
  1  2  1  0
  1 13  1  0
  1 14  1  0
  1 15  1  0
  2 12  1  0
  2  3  2  0
  4  3  1  6
  4  9  1  0
  4  5  1  0
  4 10  1  0
  5  6  2  0
  5 16  1  0
  6  7  1  0
  6 17  1  0
  7  9  1  0
  7  8  1  0
  7 18  1  1
  8  9  1  0
  8 19  1  0
  8 20  1  0
  9 21  1  6
 10 11  2  0
 10 12  1  0
 12 22  1  0
 12 23  1  0
M  END
>  <i_m_ct_stereo_status>  (184) 
1

>  <s_m_source_file>  (184) 
/var/tmp/pbs.5076255.sched01/tmp5eg4wc32/41mqp692j8.sdf

>  <i_m_source_file_index>  (184) 
37

>  <i_lp_mmshare_version>  (184) 
48012

>  <i_f3d_flags>  (184) 
0

>  <s_epik_input>  (184) 
Tz1DMVtDSDJdQyhbQ0gzXSk9TltDQEBdMTJbQ0BASF0zW0NASF0oW0NIMl0zKVtDSF09W0NIXTI=

>  <s_epik_cmdline>  (184) 
J2VwaWtfcHl0aG9uJywgJy1waHQnLCAnMi4wJywgJy1waCcsICc3LjAnLCAnLXRuJywgJzgnLCAnLW1hJywgJzIwMCcsICctaW1hZScsICc8aW5maWxlLm1hZT4nLCAnLW9tYWUnLCAnPG91dGZpbGUubWFlPic=

>  <r_lp_tautomer_probability>  (184) 
1

>  <r_epik_Ionization_Penalty>  (184) 
2.03662e-05

>  <r_epik_Ionization_Penalty_Charging>  (184) 
0

>  <r_epik_Ionization_Penalty_Neutral>  (184) 
2.03662e-05

>  <r_epik_State_Penalty>  (184) 
-0

>  <r_epik_Charging_Adjusted_Penalty>  (184) 
0

>  <i_epik_Tot_Q>  (184) 
0

>  <i_epik_Tot_abs_Q>  (184) 
0

>  <s_epik_Chemistry_Notes>  (184) 
This compound has an imine and may undergo hydrolysis.

>  <s_lp_Force_Field>  (184) 
OPLS3e

>  <r_lp_Energy>  (184) 
3.09562

>  <b_lp_Chiralities_Consistent>  (184) 
1

>  <s_lp_Variant>  (184) 
54:0-1

>  <s_i_glide_gridfile>  (184) 
pfpi4k_grid

>  <i_i_glide_lignum>  (184) 
37

>  <i_i_glide_rotatable_bonds>  (184) 
0

>  <r_i_docking_score>  (184) 
-3.73523

>  <r_i_glide_ligand_efficiency>  (184) 
-0.311269

>  <r_i_glide_ligand_efficiency_sa>  (184) 
-0.712629

>  <r_i_glide_ligand_efficiency_ln>  (184) 
-1.07183

>  <r_i_glide_gscore>  (184) 
-3.73523

>  <r_i_glide_lipo>  (184) 
-0.509456

>  <r_i_glide_hbond>  (184) 
0

>  <r_i_glide_metal>  (184) 
-0

>  <r_i_glide_rewards>  (184) 
-2.29746

>  <r_i_glide_evdw>  (184) 
-19.2373

>  <r_i_glide_ecoul>  (184) 
0.409917

>  <r_i_glide_erotb>  (184) 
0

>  <r_i_glide_esite>  (184) 
-0.0279373

>  <r_i_glide_emodel>  (184) 
-23.8616

>  <r_i_glide_energy>  (184) 
-18.8274

>  <r_i_glide_einternal>  (184) 
0

>  <r_i_glide_intrahb_reward>  (184) 
-0

>  <i_i_glide_confnum>  (184) 
2

>  <i_i_glide_posenum>  (184) 
31

>  <r_i_glide_eff_state_penalty>  (184) 
0

>  <ligand_id>  (184) 
54

>  <original_smiles>  (184) 
CC1=NC2(C=CC3CC32)C(=O)C1

>  <smiles>  (184) 
[H]C1=C([H])C2([H])C([H])([H])C2([H])C12N=C(C([H])([H])[H])C([H])([H])C2=O

$$$$
54:0:2
     RDKit          3D

 23 25  0  0  1  0  0  0  0  0999 V2000
    3.5451   -3.6613    1.7433 C   0  0  0  0  0  0  0  0  0  0  0  0
    3.8591   -3.0152    0.4150 C   0  0  0  0  0  0  0  0  0  0  0  0
    3.4861   -3.4676   -0.7032 N   0  0  0  0  0  0  0  0  0  0  0  0
    4.0423   -2.7021   -1.8027 C   0  0  1  0  0  0  0  0  0  0  0  0
    4.9726   -3.5743   -2.6210 C   0  0  0  0  0  0  0  0  0  0  0  0
    4.5737   -3.6996   -3.8920 C   0  0  0  0  0  0  0  0  0  0  0  0
    3.3521   -2.9165   -4.1553 C   0  0  2  0  0  0  0  0  0  0  0  0
    3.3455   -1.4237   -4.0673 C   0  0  0  0  0  0  0  0  0  0  0  0
    3.0177   -2.2400   -2.8300 C   0  0  2  0  0  0  0  0  0  0  0  0
    4.7833   -1.5775   -1.0834 C   0  0  0  0  0  0  0  0  0  0  0  0
    5.4138   -0.6796   -1.6386 O   0  0  0  0  0  0  0  0  0  0  0  0
    4.6746   -1.7539    0.4102 C   0  0  0  0  0  0  0  0  0  0  0  0
    4.4638   -3.8984    2.2808 H   0  0  0  0  0  0  0  0  0  0  0  0
    2.9906   -4.5862    1.5843 H   0  0  0  0  0  0  0  0  0  0  0  0
    2.9385   -2.9827    2.3391 H   0  0  0  0  0  0  0  0  0  0  0  0
    5.8344   -4.0617   -2.1828 H   0  0  0  0  0  0  0  0  0  0  0  0
    5.0458   -4.3020   -4.6492 H   0  0  0  0  0  0  0  0  0  0  0  0
    2.5381   -3.4394   -4.6600 H   0  0  0  0  0  0  0  0  0  0  0  0
    4.3074   -0.9190   -4.1049 H   0  0  0  0  0  0  0  0  0  0  0  0
    2.5317   -0.9199   -4.5829 H   0  0  0  0  0  0  0  0  0  0  0  0
    1.9893   -2.1733   -2.4862 H   0  0  0  0  0  0  0  0  0  0  0  0
    4.1188   -0.9356    0.8687 H   0  0  0  0  0  0  0  0  0  0  0  0
    5.6527   -1.8813    0.8772 H   0  0  0  0  0  0  0  0  0  0  0  0
  1  2  1  0
  1 13  1  0
  1 14  1  0
  1 15  1  0
  2 12  1  0
  2  3  2  0
  4  3  1  1
  4  9  1  0
  4  5  1  0
  4 10  1  0
  5  6  2  0
  5 16  1  0
  6  7  1  0
  6 17  1  0
  7  9  1  0
  7  8  1  0
  7 18  1  6
  8  9  1  0
  8 19  1  0
  8 20  1  0
  9 21  1  1
 10 11  2  0
 10 12  1  0
 12 22  1  0
 12 23  1  0
M  END
>  <i_m_ct_stereo_status>  (185) 
1

>  <s_m_source_file>  (185) 
/var/tmp/pbs.5076255.sched01/tmp5eg4wc32/41mqp692j8.sdf

>  <i_m_source_file_index>  (185) 
37

>  <i_lp_mmshare_version>  (185) 
48012

>  <i_f3d_flags>  (185) 
0

>  <s_epik_input>  (185) 
Tz1DMVtDSDJdQyhbQ0gzXSk9TltDQEBdMTJbQ0BASF0zW0NASF0oW0NIMl0zKVtDSF09W0NIXTI=

>  <s_epik_cmdline>  (185) 
J2VwaWtfcHl0aG9uJywgJy1waHQnLCAnMi4wJywgJy1waCcsICc3LjAnLCAnLXRuJywgJzgnLCAnLW1hJywgJzIwMCcsICctaW1hZScsICc8aW5maWxlLm1hZT4nLCAnLW9tYWUnLCAnPG91dGZpbGUubWFlPic=

>  <r_lp_tautomer_probability>  (185) 
1

>  <r_epik_Ionization_Penalty>  (185) 
2.03662e-05

>  <r_epik_Ionization_Penalty_Charging>  (185) 
0

>  <r_epik_Ionization_Penalty_Neutral>  (185) 
2.03662e-05

>  <r_epik_State_Penalty>  (185) 
-0

>  <r_epik_Charging_Adjusted_Penalty>  (185) 
0

>  <i_epik_Tot_Q>  (185) 
0

>  <i_epik_Tot_abs_Q>  (185) 
0

>  <s_epik_Chemistry_Notes>  (185) 
This compound has an imine and may undergo hydrolysis.

>  <s_lp_Force_Field>  (185) 
OPLS3e

>  <r_lp_Energy>  (185) 
3.09562

>  <b_lp_Chiralities_Consistent>  (185) 
1

>  <s_lp_Variant>  (185) 
54:0-1

>  <s_i_glide_gridfile>  (185) 
pfpi4k_grid

>  <i_i_glide_lignum>  (185) 
37

>  <i_i_glide_rotatable_bonds>  (185) 
0

>  <r_i_docking_score>  (185) 
-3.26564

>  <r_i_glide_ligand_efficiency>  (185) 
-0.272137

>  <r_i_glide_ligand_efficiency_sa>  (185) 
-0.623038

>  <r_i_glide_ligand_efficiency_ln>  (185) 
-0.937082

>  <r_i_glide_gscore>  (185) 
-3.26564

>  <r_i_glide_lipo>  (185) 
-0.153231

>  <r_i_glide_hbond>  (185) 
-0.00787039

>  <r_i_glide_metal>  (185) 
-0

>  <r_i_glide_rewards>  (185) 
-2.25

>  <r_i_glide_evdw>  (185) 
-17.3159

>  <r_i_glide_ecoul>  (185) 
0.355105

>  <r_i_glide_erotb>  (185) 
0

>  <r_i_glide_esite>  (185) 
-0.0420101

>  <r_i_glide_emodel>  (185) 
-21.3528

>  <r_i_glide_energy>  (185) 
-16.9608

>  <r_i_glide_einternal>  (185) 
0

>  <r_i_glide_intrahb_reward>  (185) 
-0

>  <i_i_glide_confnum>  (185) 
2

>  <i_i_glide_posenum>  (185) 
21

>  <r_i_glide_eff_state_penalty>  (185) 
0

>  <ligand_id>  (185) 
54

>  <original_smiles>  (185) 
CC1=NC2(C=CC3CC32)C(=O)C1

>  <smiles>  (185) 
[H]C1=C([H])C2([H])C([H])([H])C2([H])C12N=C(C([H])([H])[H])C([H])([H])C2=O

$$$$
56:0:0
     RDKit          3D

 18 20  0  0  1  0  0  0  0  0999 V2000
    0.9796  -11.1438    3.8284 C   0  0  0  0  0  0  0  0  0  0  0  0
    2.3607  -11.3917    3.7913 C   0  0  0  0  0  0  0  0  0  0  0  0
    3.2140  -10.4636    3.1705 C   0  0  0  0  0  0  0  0  0  0  0  0
    2.7132   -9.2813    2.5833 C   0  0  0  0  0  0  0  0  0  0  0  0
    3.5733   -8.4104    2.0067 N   0  0  0  0  0  0  0  0  0  0  0  0
    2.9902   -7.3294    1.5013 N   0  0  0  0  0  0  0  0  0  0  0  0
    3.6616   -6.3245    0.8846 N   0  0  0  0  0  0  0  0  0  0  0  0
    2.6746   -5.5070    0.5339 C   0  0  0  0  0  0  0  0  0  0  0  0
    1.4148   -5.8888    0.8914 N   0  0  0  0  0  0  0  0  0  0  0  0
    1.6220   -7.0468    1.5117 C   0  0  0  0  0  0  0  0  0  0  0  0
    0.7434   -7.9050    2.0925 N   0  0  0  0  0  0  0  0  0  0  0  0
    1.3044   -9.0248    2.6237 C   0  0  0  0  0  0  0  0  0  0  0  0
    0.4647   -9.9711    3.2474 C   0  0  0  0  0  0  0  0  0  0  0  0
    0.3116  -11.8487    4.3042 H   0  0  0  0  0  0  0  0  0  0  0  0
    2.7581  -12.2915    4.2366 H   0  0  0  0  0  0  0  0  0  0  0  0
    4.2724  -10.6652    3.1442 H   0  0  0  0  0  0  0  0  0  0  0  0
    2.8671   -4.5884   -0.0009 H   0  0  0  0  0  0  0  0  0  0  0  0
   -0.5985   -9.7989    3.2901 H   0  0  0  0  0  0  0  0  0  0  0  0
  1 13  2  0
  1  2  1  0
  1 14  1  0
  2  3  2  0
  2 15  1  0
  3  4  1  0
  3 16  1  0
  4 12  1  0
  4  5  2  0
  5  6  1  0
  6 10  1  0
  6  7  1  0
  7  8  2  0
  8  9  1  0
  8 17  1  0
  9 10  2  0
 10 11  1  0
 11 12  2  0
 12 13  1  0
 13 18  1  0
M  END
>  <i_m_ct_stereo_status>  (186) 
1

>  <s_m_source_file>  (186) 
/var/tmp/pbs.5076255.sched01/tmp5eg4wc32/41mqp692j8.sdf

>  <i_m_source_file_index>  (186) 
39

>  <i_lp_mmshare_version>  (186) 
48012

>  <i_f3d_flags>  (186) 
0

>  <s_epik_input>  (186) 
W2NIXTFbY0hdW2NIXVtjSF1jKGMxMiluYzNuKG4yKW5bY0hdbjM=

>  <s_epik_cmdline>  (186) 
J2VwaWtfcHl0aG9uJywgJy1waHQnLCAnMi4wJywgJy1waCcsICc3LjAnLCAnLXRuJywgJzgnLCAnLW1hJywgJzIwMCcsICctaW1hZScsICc8aW5maWxlLm1hZT4nLCAnLW9tYWUnLCAnPG91dGZpbGUubWFlPic=

>  <r_lp_tautomer_probability>  (186) 
1

>  <r_epik_Ionization_Penalty>  (186) 
2.95405e-11

>  <r_epik_Ionization_Penalty_Charging>  (186) 
0

>  <r_epik_Ionization_Penalty_Neutral>  (186) 
2.95405e-11

>  <r_epik_State_Penalty>  (186) 
-0

>  <r_epik_Charging_Adjusted_Penalty>  (186) 
0

>  <i_epik_Tot_Q>  (186) 
0

>  <i_epik_Tot_abs_Q>  (186) 
0

>  <s_lp_Force_Field>  (186) 
OPLS3e

>  <r_lp_Energy>  (186) 
25.1964

>  <b_lp_Chiralities_Consistent>  (186) 
1

>  <s_lp_Variant>  (186) 
56:0-1

>  <s_i_glide_gridfile>  (186) 
pfpi4k_grid

>  <i_i_glide_lignum>  (186) 
39

>  <i_i_glide_rotatable_bonds>  (186) 
0

>  <r_i_docking_score>  (186) 
-4.16911

>  <r_i_glide_ligand_efficiency>  (186) 
-0.320701

>  <r_i_glide_ligand_efficiency_sa>  (186) 
-0.754075

>  <r_i_glide_ligand_efficiency_ln>  (186) 
-1.16947

>  <r_i_glide_gscore>  (186) 
-4.16911

>  <r_i_glide_lipo>  (186) 
-0.151799

>  <r_i_glide_hbond>  (186) 
-0.156556

>  <r_i_glide_metal>  (186) 
-0

>  <r_i_glide_rewards>  (186) 
-2.30854

>  <r_i_glide_evdw>  (186) 
-17.3974

>  <r_i_glide_ecoul>  (186) 
-4.03897

>  <r_i_glide_erotb>  (186) 
0

>  <r_i_glide_esite>  (186) 
-0.0764936

>  <r_i_glide_emodel>  (186) 
-27.8854

>  <r_i_glide_energy>  (186) 
-21.4364

>  <r_i_glide_einternal>  (186) 
0

>  <r_i_glide_intrahb_reward>  (186) 
-0

>  <i_i_glide_confnum>  (186) 
1

>  <i_i_glide_posenum>  (186) 
1

>  <r_i_glide_eff_state_penalty>  (186) 
0

>  <ligand_id>  (186) 
56

>  <original_smiles>  (186) 
c1ccc2nn3ncnc3nc2c1

>  <smiles>  (186) 
[H]c1nc2nc3c([H])c([H])c([H])c([H])c3nn2n1

$$$$
56:0:1
     RDKit          3D

 18 20  0  0  1  0  0  0  0  0999 V2000
    0.2469  -10.2455    3.1955 C   0  0  0  0  0  0  0  0  0  0  0  0
   -0.8767   -9.4474    2.9234 C   0  0  0  0  0  0  0  0  0  0  0  0
   -0.7122   -8.1955    2.3122 C   0  0  0  0  0  0  0  0  0  0  0  0
    0.5679   -7.7304    1.9446 C   0  0  0  0  0  0  0  0  0  0  0  0
    0.6817   -6.5269    1.3411 N   0  0  0  0  0  0  0  0  0  0  0  0
    1.9334   -6.1922    1.0480 N   0  0  0  0  0  0  0  0  0  0  0  0
    2.2762   -5.0292    0.4506 N   0  0  0  0  0  0  0  0  0  0  0  0
    3.5983   -5.1428    0.3615 C   0  0  0  0  0  0  0  0  0  0  0  0
    4.1429   -6.2866    0.8644 N   0  0  0  0  0  0  0  0  0  0  0  0
    3.0793   -6.9523    1.2977 C   0  0  0  0  0  0  0  0  0  0  0  0
    2.9797   -8.1680    1.8929 N   0  0  0  0  0  0  0  0  0  0  0  0
    1.7153   -8.5453    2.2127 C   0  0  0  0  0  0  0  0  0  0  0  0
    1.5273   -9.7926    2.8383 C   0  0  0  0  0  0  0  0  0  0  0  0
    0.1306  -11.2020    3.6845 H   0  0  0  0  0  0  0  0  0  0  0  0
   -1.8584   -9.7953    3.2065 H   0  0  0  0  0  0  0  0  0  0  0  0
   -1.5849   -7.5952    2.1153 H   0  0  0  0  0  0  0  0  0  0  0  0
    4.1998   -4.3651   -0.0849 H   0  0  0  0  0  0  0  0  0  0  0  0
    2.3810  -10.4168    3.0461 H   0  0  0  0  0  0  0  0  0  0  0  0
  1 13  2  0
  1  2  1  0
  1 14  1  0
  2  3  2  0
  2 15  1  0
  3  4  1  0
  3 16  1  0
  4 12  1  0
  4  5  2  0
  5  6  1  0
  6 10  1  0
  6  7  1  0
  7  8  2  0
  8  9  1  0
  8 17  1  0
  9 10  2  0
 10 11  1  0
 11 12  2  0
 12 13  1  0
 13 18  1  0
M  END
>  <i_m_ct_stereo_status>  (187) 
1

>  <s_m_source_file>  (187) 
/var/tmp/pbs.5076255.sched01/tmp5eg4wc32/41mqp692j8.sdf

>  <i_m_source_file_index>  (187) 
39

>  <i_lp_mmshare_version>  (187) 
48012

>  <i_f3d_flags>  (187) 
0

>  <s_epik_input>  (187) 
W2NIXTFbY0hdW2NIXVtjSF1jKGMxMiluYzNuKG4yKW5bY0hdbjM=

>  <s_epik_cmdline>  (187) 
J2VwaWtfcHl0aG9uJywgJy1waHQnLCAnMi4wJywgJy1waCcsICc3LjAnLCAnLXRuJywgJzgnLCAnLW1hJywgJzIwMCcsICctaW1hZScsICc8aW5maWxlLm1hZT4nLCAnLW9tYWUnLCAnPG91dGZpbGUubWFlPic=

>  <r_lp_tautomer_probability>  (187) 
1

>  <r_epik_Ionization_Penalty>  (187) 
2.95405e-11

>  <r_epik_Ionization_Penalty_Charging>  (187) 
0

>  <r_epik_Ionization_Penalty_Neutral>  (187) 
2.95405e-11

>  <r_epik_State_Penalty>  (187) 
-0

>  <r_epik_Charging_Adjusted_Penalty>  (187) 
0

>  <i_epik_Tot_Q>  (187) 
0

>  <i_epik_Tot_abs_Q>  (187) 
0

>  <s_lp_Force_Field>  (187) 
OPLS3e

>  <r_lp_Energy>  (187) 
25.1964

>  <b_lp_Chiralities_Consistent>  (187) 
1

>  <s_lp_Variant>  (187) 
56:0-1

>  <s_i_glide_gridfile>  (187) 
pfpi4k_grid

>  <i_i_glide_lignum>  (187) 
39

>  <i_i_glide_rotatable_bonds>  (187) 
0

>  <r_i_docking_score>  (187) 
-3.74804

>  <r_i_glide_ligand_efficiency>  (187) 
-0.288311

>  <r_i_glide_ligand_efficiency_sa>  (187) 
-0.677916

>  <r_i_glide_ligand_efficiency_ln>  (187) 
-1.05136

>  <r_i_glide_gscore>  (187) 
-3.74804

>  <r_i_glide_lipo>  (187) 
-0.0717246

>  <r_i_glide_hbond>  (187) 
-0.136152

>  <r_i_glide_metal>  (187) 
-0

>  <r_i_glide_rewards>  (187) 
-2.31545

>  <r_i_glide_evdw>  (187) 
-18.0191

>  <r_i_glide_ecoul>  (187) 
-1.82319

>  <r_i_glide_erotb>  (187) 
0

>  <r_i_glide_esite>  (187) 
-0.0502806

>  <r_i_glide_emodel>  (187) 
-25.6412

>  <r_i_glide_energy>  (187) 
-19.8423

>  <r_i_glide_einternal>  (187) 
0

>  <r_i_glide_intrahb_reward>  (187) 
-0

>  <i_i_glide_confnum>  (187) 
1

>  <i_i_glide_posenum>  (187) 
37

>  <r_i_glide_eff_state_penalty>  (187) 
0

>  <ligand_id>  (187) 
56

>  <original_smiles>  (187) 
c1ccc2nn3ncnc3nc2c1

>  <smiles>  (187) 
[H]c1nc2nc3c([H])c([H])c([H])c([H])c3nn2n1

$$$$
56:0:2
     RDKit          3D

 18 20  0  0  1  0  0  0  0  0999 V2000
   -0.5650   -9.4575    2.9725 C   0  0  0  0  0  0  0  0  0  0  0  0
    0.5556  -10.2875    3.1392 C   0  0  0  0  0  0  0  0  0  0  0  0
    1.8270   -9.8355    2.7413 C   0  0  0  0  0  0  0  0  0  0  0  0
    1.9985   -8.5524    2.1727 C   0  0  0  0  0  0  0  0  0  0  0  0
    3.2381   -8.1446    1.7998 N   0  0  0  0  0  0  0  0  0  0  0  0
    3.2713   -6.9181    1.2823 N   0  0  0  0  0  0  0  0  0  0  0  0
    4.3993   -6.3025    0.8391 N   0  0  0  0  0  0  0  0  0  0  0  0
    3.9311   -5.1312    0.4202 C   0  0  0  0  0  0  0  0  0  0  0  0
    2.5891   -4.9335    0.5591 N   0  0  0  0  0  0  0  0  0  0  0  0
    2.1753   -6.0701    1.1048 C   0  0  0  0  0  0  0  0  0  0  0  0
    0.9253   -6.4593    1.4680 N   0  0  0  0  0  0  0  0  0  0  0  0
    0.8510   -7.7051    2.0063 C   0  0  0  0  0  0  0  0  0  0  0  0
   -0.4146   -8.1784    2.4156 C   0  0  0  0  0  0  0  0  0  0  0  0
   -1.5400   -9.8142    3.2783 H   0  0  0  0  0  0  0  0  0  0  0  0
    0.4343  -11.2713    3.5722 H   0  0  0  0  0  0  0  0  0  0  0  0
    2.6783  -10.4909    2.8753 H   0  0  0  0  0  0  0  0  0  0  0  0
    4.5824   -4.3776   -0.0009 H   0  0  0  0  0  0  0  0  0  0  0  0
   -1.2909   -7.5599    2.2933 H   0  0  0  0  0  0  0  0  0  0  0  0
  1 13  2  0
  1  2  1  0
  1 14  1  0
  2  3  2  0
  2 15  1  0
  3  4  1  0
  3 16  1  0
  4 12  1  0
  4  5  2  0
  5  6  1  0
  6 10  1  0
  6  7  1  0
  7  8  2  0
  8  9  1  0
  8 17  1  0
  9 10  2  0
 10 11  1  0
 11 12  2  0
 12 13  1  0
 13 18  1  0
M  END
>  <i_m_ct_stereo_status>  (188) 
1

>  <s_m_source_file>  (188) 
/var/tmp/pbs.5076255.sched01/tmp5eg4wc32/41mqp692j8.sdf

>  <i_m_source_file_index>  (188) 
39

>  <i_lp_mmshare_version>  (188) 
48012

>  <i_f3d_flags>  (188) 
0

>  <s_epik_input>  (188) 
W2NIXTFbY0hdW2NIXVtjSF1jKGMxMiluYzNuKG4yKW5bY0hdbjM=

>  <s_epik_cmdline>  (188) 
J2VwaWtfcHl0aG9uJywgJy1waHQnLCAnMi4wJywgJy1waCcsICc3LjAnLCAnLXRuJywgJzgnLCAnLW1hJywgJzIwMCcsICctaW1hZScsICc8aW5maWxlLm1hZT4nLCAnLW9tYWUnLCAnPG91dGZpbGUubWFlPic=

>  <r_lp_tautomer_probability>  (188) 
1

>  <r_epik_Ionization_Penalty>  (188) 
2.95405e-11

>  <r_epik_Ionization_Penalty_Charging>  (188) 
0

>  <r_epik_Ionization_Penalty_Neutral>  (188) 
2.95405e-11

>  <r_epik_State_Penalty>  (188) 
-0

>  <r_epik_Charging_Adjusted_Penalty>  (188) 
0

>  <i_epik_Tot_Q>  (188) 
0

>  <i_epik_Tot_abs_Q>  (188) 
0

>  <s_lp_Force_Field>  (188) 
OPLS3e

>  <r_lp_Energy>  (188) 
25.1964

>  <b_lp_Chiralities_Consistent>  (188) 
1

>  <s_lp_Variant>  (188) 
56:0-1

>  <s_i_glide_gridfile>  (188) 
pfpi4k_grid

>  <i_i_glide_lignum>  (188) 
39

>  <i_i_glide_rotatable_bonds>  (188) 
0

>  <r_i_docking_score>  (188) 
-3.71923

>  <r_i_glide_ligand_efficiency>  (188) 
-0.286094

>  <r_i_glide_ligand_efficiency_sa>  (188) 
-0.672704

>  <r_i_glide_ligand_efficiency_ln>  (188) 
-1.04328

>  <r_i_glide_gscore>  (188) 
-3.71923

>  <r_i_glide_lipo>  (188) 
-0.107505

>  <r_i_glide_hbond>  (188) 
-0.0943243

>  <r_i_glide_metal>  (188) 
-0

>  <r_i_glide_rewards>  (188) 
-2.35147

>  <r_i_glide_evdw>  (188) 
-18.681

>  <r_i_glide_ecoul>  (188) 
-1.34223

>  <r_i_glide_erotb>  (188) 
0

>  <r_i_glide_esite>  (188) 
-0.0305476

>  <r_i_glide_emodel>  (188) 
-25.7729

>  <r_i_glide_energy>  (188) 
-20.0232

>  <r_i_glide_einternal>  (188) 
0

>  <r_i_glide_intrahb_reward>  (188) 
-0

>  <i_i_glide_confnum>  (188) 
1

>  <i_i_glide_posenum>  (188) 
18

>  <r_i_glide_eff_state_penalty>  (188) 
0

>  <ligand_id>  (188) 
56

>  <original_smiles>  (188) 
c1ccc2nn3ncnc3nc2c1

>  <smiles>  (188) 
[H]c1nc2nc3c([H])c([H])c([H])c([H])c3nn2n1

$$$$
57:0:0
     RDKit          3D

 68 72  0  0  1  0  0  0  0  0999 V2000
    2.2930   -3.0498   -3.8950 C   0  0  0  0  0  0  0  0  0  0  0  0
    3.1370   -2.9099   -2.7748 O   0  0  0  0  0  0  0  0  0  0  0  0
    4.4383   -3.2017   -2.8845 C   0  0  0  0  0  0  0  0  0  0  0  0
    4.9818   -3.6771   -3.8817 O   0  0  0  0  0  0  0  0  0  0  0  0
    5.2251   -2.8862   -1.6067 C   0  0  2  0  0  0  0  0  0  0  0  0
    5.0841   -3.9536   -0.5042 C   0  0  0  0  0  0  0  0  0  0  0  0
    4.2511   -3.2169    0.5258 C   0  0  1  0  0  0  0  0  0  0  0  0
    4.3207   -3.6306    1.9940 C   0  0  0  0  0  0  0  0  0  0  0  0
    3.3700   -2.7217    2.8159 C   0  0  1  0  0  0  0  0  0  0  0  0
    3.2223   -3.2261    4.2671 C   0  0  0  0  0  0  0  0  0  0  0  0
    2.6928   -2.1859    5.2751 C   0  0  0  0  0  0  0  0  0  0  0  0
    1.7641   -1.1191    4.6489 C   0  0  1  0  0  0  0  0  0  0  0  0
    0.4798   -1.8065    4.0874 C   0  0  0  0  0  0  0  0  0  0  0  0
    1.3319   -0.0752    5.7535 C   0  0  2  0  0  0  0  0  0  0  0  0
    0.3908   -0.6723    6.8379 C   0  0  0  0  0  0  0  0  0  0  0  0
   -0.0020    0.3472    7.9080 C   0  0  0  0  0  0  0  0  0  0  0  0
   -0.6644    1.5390    7.2401 C   0  0  0  0  0  0  0  0  0  0  0  0
   -1.8020    1.8704    7.5723 O   0  0  0  0  0  0  0  0  0  0  0  0
    0.1596    2.2737    6.1592 C   0  0  0  0  0  0  0  0  0  0  0  0
   -0.7559    3.3149    5.4587 C   0  0  0  0  0  0  0  0  0  0  0  0
    1.3052    3.0241    6.8662 C   0  0  0  0  0  0  0  0  0  0  0  0
    0.7845    1.2542    5.1653 C   0  0  0  0  0  0  0  0  0  0  0  0
    0.8919    1.5427    3.8414 C   0  0  0  0  0  0  0  0  0  0  0  0
    1.6331    0.6890    2.9009 C   0  0  0  0  0  0  0  0  0  0  0  0
    1.5087    0.8273    1.6890 O   0  0  0  0  0  0  0  0  0  0  0  0
    2.5796   -0.3519    3.5440 C   0  0  2  0  0  0  0  0  0  0  0  0
    3.6573   -1.1857    2.6886 C   0  0  1  0  0  0  0  0  0  0  0  0
    5.0514   -0.8700    3.3160 C   0  0  0  0  0  0  0  0  0  0  0  0
    3.7419   -0.8619    1.1409 C   0  0  1  0  0  0  0  0  0  0  0  0
    4.2167    0.4437    0.9524 O   0  0  0  0  0  0  0  0  0  0  0  0
    4.7161   -1.7885    0.3750 C   0  0  2  0  0  0  0  0  0  0  0  0
    4.7170   -1.6701   -1.0379 O   0  0  0  0  0  0  0  0  0  0  0  0
    1.2839   -2.7492   -3.6258 H   0  0  0  0  0  0  0  0  0  0  0  0
    2.2636   -4.0889   -4.2391 H   0  0  0  0  0  0  0  0  0  0  0  0
    2.6346   -2.4186   -4.7105 H   0  0  0  0  0  0  0  0  0  0  0  0
    6.2781   -2.7642   -1.8568 H   0  0  0  0  0  0  0  0  0  0  0  0
    4.5871   -4.8680   -0.8415 H   0  0  0  0  0  0  0  0  0  0  0  0
    6.0665   -4.2260   -0.1072 H   0  0  0  0  0  0  0  0  0  0  0  0
    3.2140   -3.2740    0.1928 H   0  0  0  0  0  0  0  0  0  0  0  0
    4.0154   -4.6700    2.0998 H   0  0  0  0  0  0  0  0  0  0  0  0
    5.3437   -3.5628    2.3627 H   0  0  0  0  0  0  0  0  0  0  0  0
    2.4072   -2.8787    2.3364 H   0  0  0  0  0  0  0  0  0  0  0  0
    2.5214   -4.0610    4.2420 H   0  0  0  0  0  0  0  0  0  0  0  0
    4.1672   -3.6366    4.6312 H   0  0  0  0  0  0  0  0  0  0  0  0
    2.1960   -2.7201    6.0846 H   0  0  0  0  0  0  0  0  0  0  0  0
    3.5338   -1.6747    5.7431 H   0  0  0  0  0  0  0  0  0  0  0  0
   -0.3489   -1.1020    3.9848 H   0  0  0  0  0  0  0  0  0  0  0  0
    0.1448   -2.6108    4.7446 H   0  0  0  0  0  0  0  0  0  0  0  0
    0.6179   -2.2379    3.1010 H   0  0  0  0  0  0  0  0  0  0  0  0
    2.2363    0.2328    6.2734 H   0  0  0  0  0  0  0  0  0  0  0  0
   -0.5239   -1.0536    6.3837 H   0  0  0  0  0  0  0  0  0  0  0  0
    0.8597   -1.5211    7.3333 H   0  0  0  0  0  0  0  0  0  0  0  0
   -0.6935   -0.0943    8.6256 H   0  0  0  0  0  0  0  0  0  0  0  0
    0.8672    0.6760    8.4765 H   0  0  0  0  0  0  0  0  0  0  0  0
   -1.5246    2.8142    4.8659 H   0  0  0  0  0  0  0  0  0  0  0  0
   -0.1991    3.9804    4.7974 H   0  0  0  0  0  0  0  0  0  0  0  0
   -1.2665    3.9604    6.1753 H   0  0  0  0  0  0  0  0  0  0  0  0
    1.9748    2.3406    7.3895 H   0  0  0  0  0  0  0  0  0  0  0  0
    0.9305    3.7375    7.6005 H   0  0  0  0  0  0  0  0  0  0  0  0
    1.9138    3.5780    6.1498 H   0  0  0  0  0  0  0  0  0  0  0  0
    0.5199    2.4668    3.4240 H   0  0  0  0  0  0  0  0  0  0  0  0
    3.2153    0.3165    4.1235 H   0  0  0  0  0  0  0  0  0  0  0  0
    5.3055    0.1852    3.2408 H   0  0  0  0  0  0  0  0  0  0  0  0
    5.8695   -1.4134    2.8555 H   0  0  0  0  0  0  0  0  0  0  0  0
    5.1002   -1.1080    4.3717 H   0  0  0  0  0  0  0  0  0  0  0  0
    2.7696   -0.9638    0.6596 H   0  0  0  0  0  0  0  0  0  0  0  0
    3.5699    1.0466    1.2970 H   0  0  0  0  0  0  0  0  0  0  0  0
    5.7481   -1.6680    0.7039 H   0  0  0  0  0  0  0  0  0  0  0  0
  1  2  1  0
  1 33  1  0
  1 34  1  0
  1 35  1  0
  2  3  1  0
  3  4  2  0
  3  5  1  0
  5 32  1  0
  5  6  1  0
  5 36  1  6
  6  7  1  0
  6 37  1  0
  6 38  1  0
  7 31  1  0
  7  8  1  0
  7 39  1  6
  8  9  1  0
  8 40  1  0
  8 41  1  0
  9 27  1  0
  9 10  1  0
  9 42  1  6
 10 11  1  0
 10 43  1  0
 10 44  1  0
 11 12  1  0
 11 45  1  0
 11 46  1  0
 12 26  1  0
 12 13  1  6
 12 14  1  0
 13 47  1  0
 13 48  1  0
 13 49  1  0
 14 22  1  0
 14 15  1  0
 14 50  1  1
 15 16  1  0
 15 51  1  0
 15 52  1  0
 16 17  1  0
 16 53  1  0
 16 54  1  0
 17 18  2  0
 17 19  1  0
 19 20  1  0
 19 21  1  0
 19 22  1  0
 20 55  1  0
 20 56  1  0
 20 57  1  0
 21 58  1  0
 21 59  1  0
 21 60  1  0
 22 23  2  0
 23 24  1  0
 23 61  1  0
 24 25  2  0
 24 26  1  0
 26 27  1  0
 26 62  1  1
 27 28  1  1
 27 29  1  0
 28 63  1  0
 28 64  1  0
 28 65  1  0
 29 30  1  0
 29 31  1  0
 29 66  1  6
 30 67  1  0
 31 32  1  0
 31 68  1  1
M  END
>  <i_m_ct_stereo_status>  (189) 
1

>  <s_m_source_file>  (189) 
/var/tmp/pbs.5076255.sched01/tmp5eg4wc32/41mqp692j8.sdf

>  <i_m_source_file_index>  (189) 
40

>  <i_lp_mmshare_version>  (189) 
48012

>  <i_f3d_flags>  (189) 
0

>  <s_epik_input>  (189) 
W0NIM11PQyg9TylbQ0BIXShbQ0gyXTEpT1tDQEBIXShbQ0BASF0yW09IXSlbQ0BASF0xW0NIMl1bQ0BASF0oW0NIMl1bQ0gyXTMpW0NAXTIoW0NIM10pW0NASF00Qyg9TylbQ0hdPUMoW0NAQEhdNVtDQF0zNFtDSDNdKUMoW0NIM10pKFtDSDNdKUMoPU8pW0NIMl1bQ0gyXTU=

>  <s_epik_cmdline>  (189) 
J2VwaWtfcHl0aG9uJywgJy1waHQnLCAnMi4wJywgJy1waCcsICc3LjAnLCAnLXRuJywgJzgnLCAnLW1hJywgJzIwMCcsICctaW1hZScsICc8aW5maWxlLm1hZT4nLCAnLW9tYWUnLCAnPG91dGZpbGUubWFlPic=

>  <r_lp_tautomer_probability>  (189) 
1

>  <r_epik_Ionization_Penalty>  (189) 
4.46181e-08

>  <r_epik_Ionization_Penalty_Charging>  (189) 
0

>  <r_epik_Ionization_Penalty_Neutral>  (189) 
4.46181e-08

>  <r_epik_State_Penalty>  (189) 
-0

>  <r_epik_Charging_Adjusted_Penalty>  (189) 
0

>  <i_epik_Tot_Q>  (189) 
0

>  <i_epik_Tot_abs_Q>  (189) 
0

>  <s_epik_Chemistry_Notes>  (189) 
This compound has an ester and may undergo hydrolysis at high or low pH.

>  <s_lp_Force_Field>  (189) 
OPLS3e

>  <r_lp_Energy>  (189) 
61.3873

>  <b_lp_Chiralities_Consistent>  (189) 
1

>  <s_lp_Variant>  (189) 
57:0-1

>  <s_i_glide_gridfile>  (189) 
pfpi4k_grid

>  <i_i_glide_lignum>  (189) 
40

>  <i_i_glide_rotatable_bonds>  (189) 
3

>  <r_i_docking_score>  (189) 
-3.25539

>  <r_i_glide_ligand_efficiency>  (189) 
-0.101731

>  <r_i_glide_ligand_efficiency_sa>  (189) 
-0.322976

>  <r_i_glide_ligand_efficiency_ln>  (189) 
-0.728971

>  <r_i_glide_gscore>  (189) 
-3.25539

>  <r_i_glide_lipo>  (189) 
-0.386813

>  <r_i_glide_hbond>  (189) 
0

>  <r_i_glide_metal>  (189) 
-0

>  <r_i_glide_rewards>  (189) 
-0.961821

>  <r_i_glide_evdw>  (189) 
-32.8402

>  <r_i_glide_ecoul>  (189) 
-2.19754

>  <r_i_glide_erotb>  (189) 
0.101202

>  <r_i_glide_esite>  (189) 
-0.0363152

>  <r_i_glide_emodel>  (189) 
-46.8214

>  <r_i_glide_energy>  (189) 
-35.0378

>  <r_i_glide_einternal>  (189) 
1.09724

>  <r_i_glide_intrahb_reward>  (189) 
-0.5

>  <i_i_glide_confnum>  (189) 
2

>  <i_i_glide_posenum>  (189) 
36

>  <r_i_glide_eff_state_penalty>  (189) 
0

>  <ligand_id>  (189) 
57

>  <original_smiles>  (189) 
COC(=O)C1CC2CC3CCC4(C)C5CCC(=O)C(C)(C)C5=CC(=O)C4C3(C)C(O)C2O1

>  <smiles>  (189) 
[H]OC1([H])C2([H])OC([H])(C(=O)OC([H])([H])[H])C([H])([H])C2([H])C([H])([H])C2([H])C([H])([H])C([H])([H])C3(C([H])([H])[H])C4([H])C(=C([H])C(=O)C3([H])C12C([H])([H])[H])C(C([H])([H])[H])(C([H])([H])[H])C(=O)C([H])([H])C4([H])[H]

$$$$
57:0:1
     RDKit          3D

 68 72  0  0  1  0  0  0  0  0999 V2000
    3.1706    0.3578   -4.8666 C   0  0  0  0  0  0  0  0  0  0  0  0
    3.9471   -0.2158   -3.8283 O   0  0  0  0  0  0  0  0  0  0  0  0
    3.8981   -1.5442   -3.6194 C   0  0  0  0  0  0  0  0  0  0  0  0
    3.2837   -2.3447   -4.3172 O   0  0  0  0  0  0  0  0  0  0  0  0
    4.7654   -2.0033   -2.4359 C   0  0  2  0  0  0  0  0  0  0  0  0
    4.3488   -3.3607   -1.8367 C   0  0  0  0  0  0  0  0  0  0  0  0
    3.7993   -2.9322   -0.4978 C   0  0  1  0  0  0  0  0  0  0  0  0
    3.7639   -3.9265    0.6551 C   0  0  0  0  0  0  0  0  0  0  0  0
    3.1640   -3.2153    1.8934 C   0  0  1  0  0  0  0  0  0  0  0  0
    2.8938   -4.2199    3.0331 C   0  0  0  0  0  0  0  0  0  0  0  0
    2.7347   -3.5971    4.4338 C   0  0  0  0  0  0  0  0  0  0  0  0
    2.1755   -2.1559    4.4252 C   0  0  1  0  0  0  0  0  0  0  0  0
    0.7308   -2.1609    3.8395 C   0  0  0  0  0  0  0  0  0  0  0  0
    2.1171   -1.5971    5.8996 C   0  0  2  0  0  0  0  0  0  0  0  0
    1.0561   -2.3087    6.7888 C   0  0  0  0  0  0  0  0  0  0  0  0
    1.0124   -1.7716    8.2191 C   0  0  0  0  0  0  0  0  0  0  0  0
    0.7570   -0.2771    8.1846 C   0  0  0  0  0  0  0  0  0  0  0  0
   -0.1980    0.1900    8.7973 O   0  0  0  0  0  0  0  0  0  0  0  0
    1.7453    0.5835    7.3637 C   0  0  0  0  0  0  0  0  0  0  0  0
    1.1836    2.0306    7.2732 C   0  0  0  0  0  0  0  0  0  0  0  0
    3.0822    0.6236    8.1302 C   0  0  0  0  0  0  0  0  0  0  0  0
    1.9992   -0.0474    5.9680 C   0  0  0  0  0  0  0  0  0  0  0  0
    2.1703    0.7224    4.8667 C   0  0  0  0  0  0  0  0  0  0  0  0
    2.5657    0.1720    3.5589 C   0  0  0  0  0  0  0  0  0  0  0  0
    2.4063    0.8113    2.5254 O   0  0  0  0  0  0  0  0  0  0  0  0
    3.1660   -1.2572    3.5999 C   0  0  2  0  0  0  0  0  0  0  0  0
    3.9148   -1.9123    2.3387 C   0  0  1  0  0  0  0  0  0  0  0  0
    5.3482   -2.2878    2.8208 C   0  0  0  0  0  0  0  0  0  0  0  0
    4.0786   -0.9987    1.0546 C   0  0  1  0  0  0  0  0  0  0  0  0
    4.9511    0.0944    1.2837 O   0  0  0  0  0  0  0  0  0  0  0  0
    4.6808   -1.7581   -0.1457 C   0  0  2  0  0  0  0  0  0  0  0  0
    4.6577   -1.0543   -1.3721 O   0  0  0  0  0  0  0  0  0  0  0  0
    3.3304    1.4358   -4.8873 H   0  0  0  0  0  0  0  0  0  0  0  0
    2.1106    0.1800   -4.6937 H   0  0  0  0  0  0  0  0  0  0  0  0
    3.4335   -0.0463   -5.8443 H   0  0  0  0  0  0  0  0  0  0  0  0
    5.7941   -2.0883   -2.7714 H   0  0  0  0  0  0  0  0  0  0  0  0
    3.5707   -3.8709   -2.4038 H   0  0  0  0  0  0  0  0  0  0  0  0
    5.2053   -4.0344   -1.7399 H   0  0  0  0  0  0  0  0  0  0  0  0
    2.7871   -2.5627   -0.6765 H   0  0  0  0  0  0  0  0  0  0  0  0
    3.1561   -4.7883    0.3789 H   0  0  0  0  0  0  0  0  0  0  0  0
    4.7665   -4.3013    0.8572 H   0  0  0  0  0  0  0  0  0  0  0  0
    2.1933   -2.8841    1.5366 H   0  0  0  0  0  0  0  0  0  0  0  0
    1.9671   -4.7384    2.7898 H   0  0  0  0  0  0  0  0  0  0  0  0
    3.6679   -4.9915    3.0658 H   0  0  0  0  0  0  0  0  0  0  0  0
    2.1158   -4.2604    5.0381 H   0  0  0  0  0  0  0  0  0  0  0  0
    3.7043   -3.5858    4.9277 H   0  0  0  0  0  0  0  0  0  0  0  0
    0.1589   -1.2813    4.1441 H   0  0  0  0  0  0  0  0  0  0  0  0
    0.1771   -3.0419    4.1688 H   0  0  0  0  0  0  0  0  0  0  0  0
    0.7080   -2.1606    2.7541 H   0  0  0  0  0  0  0  0  0  0  0  0
    3.0821   -1.8022    6.3593 H   0  0  0  0  0  0  0  0  0  0  0  0
    0.0575   -2.1971    6.3647 H   0  0  0  0  0  0  0  0  0  0  0  0
    1.2460   -3.3821    6.8409 H   0  0  0  0  0  0  0  0  0  0  0  0
    0.2206   -2.2609    8.7895 H   0  0  0  0  0  0  0  0  0  0  0  0
    1.9463   -1.9683    8.7425 H   0  0  0  0  0  0  0  0  0  0  0  0
    0.2855    2.0559    6.6539 H   0  0  0  0  0  0  0  0  0  0  0  0
    1.9049    2.7315    6.8518 H   0  0  0  0  0  0  0  0  0  0  0  0
    0.9098    2.4313    8.2511 H   0  0  0  0  0  0  0  0  0  0  0  0
    3.5156   -0.3713    8.2407 H   0  0  0  0  0  0  0  0  0  0  0  0
    2.9636    1.0379    9.1323 H   0  0  0  0  0  0  0  0  0  0  0  0
    3.8184    1.2350    7.6061 H   0  0  0  0  0  0  0  0  0  0  0  0
    2.0954    1.8019    4.9087 H   0  0  0  0  0  0  0  0  0  0  0  0
    3.9939   -1.0874    4.2884 H   0  0  0  0  0  0  0  0  0  0  0  0
    5.9081   -1.4049    3.1246 H   0  0  0  0  0  0  0  0  0  0  0  0
    5.9521   -2.7921    2.0715 H   0  0  0  0  0  0  0  0  0  0  0  0
    5.3439   -2.9476    3.6804 H   0  0  0  0  0  0  0  0  0  0  0  0
    3.1099   -0.6262    0.7228 H   0  0  0  0  0  0  0  0  0  0  0  0
    4.9024    0.6631    0.5282 H   0  0  0  0  0  0  0  0  0  0  0  0
    5.7071   -2.0806    0.0334 H   0  0  0  0  0  0  0  0  0  0  0  0
  1  2  1  0
  1 33  1  0
  1 34  1  0
  1 35  1  0
  2  3  1  0
  3  4  2  0
  3  5  1  0
  5 32  1  0
  5  6  1  0
  5 36  1  6
  6  7  1  0
  6 37  1  0
  6 38  1  0
  7 31  1  0
  7  8  1  0
  7 39  1  6
  8  9  1  0
  8 40  1  0
  8 41  1  0
  9 27  1  0
  9 10  1  0
  9 42  1  6
 10 11  1  0
 10 43  1  0
 10 44  1  0
 11 12  1  0
 11 45  1  0
 11 46  1  0
 12 26  1  0
 12 13  1  6
 12 14  1  0
 13 47  1  0
 13 48  1  0
 13 49  1  0
 14 22  1  0
 14 15  1  0
 14 50  1  1
 15 16  1  0
 15 51  1  0
 15 52  1  0
 16 17  1  0
 16 53  1  0
 16 54  1  0
 17 18  2  0
 17 19  1  0
 19 20  1  0
 19 21  1  0
 19 22  1  0
 20 55  1  0
 20 56  1  0
 20 57  1  0
 21 58  1  0
 21 59  1  0
 21 60  1  0
 22 23  2  0
 23 24  1  0
 23 61  1  0
 24 25  2  0
 24 26  1  0
 26 27  1  0
 26 62  1  1
 27 28  1  1
 27 29  1  0
 28 63  1  0
 28 64  1  0
 28 65  1  0
 29 30  1  0
 29 31  1  0
 29 66  1  6
 30 67  1  0
 31 32  1  0
 31 68  1  1
M  END
>  <i_m_ct_stereo_status>  (190) 
1

>  <s_m_source_file>  (190) 
/var/tmp/pbs.5076255.sched01/tmp5eg4wc32/41mqp692j8.sdf

>  <i_m_source_file_index>  (190) 
40

>  <i_lp_mmshare_version>  (190) 
48012

>  <i_f3d_flags>  (190) 
0

>  <s_epik_input>  (190) 
W0NIM11PQyg9TylbQ0BIXShbQ0gyXTEpT1tDQEBIXShbQ0BASF0yW09IXSlbQ0BASF0xW0NIMl1bQ0BASF0oW0NIMl1bQ0gyXTMpW0NAXTIoW0NIM10pW0NASF00Qyg9TylbQ0hdPUMoW0NAQEhdNVtDQF0zNFtDSDNdKUMoW0NIM10pKFtDSDNdKUMoPU8pW0NIMl1bQ0gyXTU=

>  <s_epik_cmdline>  (190) 
J2VwaWtfcHl0aG9uJywgJy1waHQnLCAnMi4wJywgJy1waCcsICc3LjAnLCAnLXRuJywgJzgnLCAnLW1hJywgJzIwMCcsICctaW1hZScsICc8aW5maWxlLm1hZT4nLCAnLW9tYWUnLCAnPG91dGZpbGUubWFlPic=

>  <r_lp_tautomer_probability>  (190) 
1

>  <r_epik_Ionization_Penalty>  (190) 
4.46181e-08

>  <r_epik_Ionization_Penalty_Charging>  (190) 
0

>  <r_epik_Ionization_Penalty_Neutral>  (190) 
4.46181e-08

>  <r_epik_State_Penalty>  (190) 
-0

>  <r_epik_Charging_Adjusted_Penalty>  (190) 
0

>  <i_epik_Tot_Q>  (190) 
0

>  <i_epik_Tot_abs_Q>  (190) 
0

>  <s_epik_Chemistry_Notes>  (190) 
This compound has an ester and may undergo hydrolysis at high or low pH.

>  <s_lp_Force_Field>  (190) 
OPLS3e

>  <r_lp_Energy>  (190) 
61.3873

>  <b_lp_Chiralities_Consistent>  (190) 
1

>  <s_lp_Variant>  (190) 
57:0-1

>  <s_i_glide_gridfile>  (190) 
pfpi4k_grid

>  <i_i_glide_lignum>  (190) 
40

>  <i_i_glide_rotatable_bonds>  (190) 
3

>  <r_i_docking_score>  (190) 
-3.18926

>  <r_i_glide_ligand_efficiency>  (190) 
-0.0996645

>  <r_i_glide_ligand_efficiency_sa>  (190) 
-0.316415

>  <r_i_glide_ligand_efficiency_ln>  (190) 
-0.714163

>  <r_i_glide_gscore>  (190) 
-3.18926

>  <r_i_glide_lipo>  (190) 
-0.164489

>  <r_i_glide_hbond>  (190) 
-0.299672

>  <r_i_glide_metal>  (190) 
-0

>  <r_i_glide_rewards>  (190) 
-0.696742

>  <r_i_glide_evdw>  (190) 
-32.4636

>  <r_i_glide_ecoul>  (190) 
-3.22721

>  <r_i_glide_erotb>  (190) 
0.101202

>  <r_i_glide_esite>  (190) 
-0.0223014

>  <r_i_glide_emodel>  (190) 
-42.1559

>  <r_i_glide_energy>  (190) 
-35.6908

>  <r_i_glide_einternal>  (190) 
1.49761

>  <r_i_glide_intrahb_reward>  (190) 
-0

>  <i_i_glide_confnum>  (190) 
4

>  <i_i_glide_posenum>  (190) 
9

>  <r_i_glide_eff_state_penalty>  (190) 
0

>  <ligand_id>  (190) 
57

>  <original_smiles>  (190) 
COC(=O)C1CC2CC3CCC4(C)C5CCC(=O)C(C)(C)C5=CC(=O)C4C3(C)C(O)C2O1

>  <smiles>  (190) 
[H]OC1([H])C2([H])OC([H])(C(=O)OC([H])([H])[H])C([H])([H])C2([H])C([H])([H])C2([H])C([H])([H])C([H])([H])C3(C([H])([H])[H])C4([H])C(=C([H])C(=O)C3([H])C12C([H])([H])[H])C(C([H])([H])[H])(C([H])([H])[H])C(=O)C([H])([H])C4([H])[H]

$$$$
57:0:2
     RDKit          3D

 68 72  0  0  1  0  0  0  0  0999 V2000
    4.1904   -6.0055    0.7051 C   0  0  0  0  0  0  0  0  0  0  0  0
    2.8073   -6.2432    0.4827 O   0  0  0  0  0  0  0  0  0  0  0  0
    1.8518   -6.0581    1.4261 C   0  0  0  0  0  0  0  0  0  0  0  0
    0.6683   -6.2768    1.1987 O   0  0  0  0  0  0  0  0  0  0  0  0
    2.3490   -5.5024    2.7800 C   0  0  2  0  0  0  0  0  0  0  0  0
    1.3087   -5.3883    3.9093 C   0  0  0  0  0  0  0  0  0  0  0  0
    1.2138   -3.8832    4.0500 C   0  0  1  0  0  0  0  0  0  0  0  0
    0.7238   -3.2894    5.3602 C   0  0  0  0  0  0  0  0  0  0  0  0
    0.6948   -1.7452    5.2124 C   0  0  1  0  0  0  0  0  0  0  0  0
    0.0111   -1.0960    6.4311 C   0  0  0  0  0  0  0  0  0  0  0  0
    0.3100    0.4022    6.6320 C   0  0  0  0  0  0  0  0  0  0  0  0
    0.6184    1.1639    5.3207 C   0  0  1  0  0  0  0  0  0  0  0  0
   -0.6395    1.1409    4.4004 C   0  0  0  0  0  0  0  0  0  0  0  0
    0.9726    2.6637    5.6552 C   0  0  2  0  0  0  0  0  0  0  0  0
   -0.2372    3.4829    6.1873 C   0  0  0  0  0  0  0  0  0  0  0  0
    0.1189    4.9304    6.5186 C   0  0  0  0  0  0  0  0  0  0  0  0
    0.7000    5.5961    5.2833 C   0  0  0  0  0  0  0  0  0  0  0  0
    0.2079    6.6366    4.8767 O   0  0  0  0  0  0  0  0  0  0  0  0
    1.9400    4.9204    4.6501 C   0  0  0  0  0  0  0  0  0  0  0  0
    2.2455    5.6190    3.2913 C   0  0  0  0  0  0  0  0  0  0  0  0
    3.1392    5.1440    5.5911 C   0  0  0  0  0  0  0  0  0  0  0  0
    1.7142    3.3975    4.4998 C   0  0  0  0  0  0  0  0  0  0  0  0
    2.1839    2.7255    3.4230 C   0  0  0  0  0  0  0  0  0  0  0  0
    2.1530    1.2541    3.3244 C   0  0  0  0  0  0  0  0  0  0  0  0
    2.3431    0.6729    2.2646 O   0  0  0  0  0  0  0  0  0  0  0  0
    1.8758    0.4997    4.6531 C   0  0  2  0  0  0  0  0  0  0  0  0
    2.0624   -1.0917    4.8092 C   0  0  1  0  0  0  0  0  0  0  0  0
    3.0994   -1.3078    5.9569 C   0  0  0  0  0  0  0  0  0  0  0  0
    2.6038   -1.8669    3.5417 C   0  0  1  0  0  0  0  0  0  0  0  0
    3.9299   -1.4711    3.2606 O   0  0  0  0  0  0  0  0  0  0  0  0
    2.6100   -3.4016    3.7345 C   0  0  2  0  0  0  0  0  0  0  0  0
    2.8034   -4.1606    2.5595 O   0  0  0  0  0  0  0  0  0  0  0  0
    4.7671   -6.2363   -0.1928 H   0  0  0  0  0  0  0  0  0  0  0  0
    4.5532   -6.6399    1.5168 H   0  0  0  0  0  0  0  0  0  0  0  0
    4.3789   -4.9582    0.9515 H   0  0  0  0  0  0  0  0  0  0  0  0
    3.1599   -6.1217    3.1571 H   0  0  0  0  0  0  0  0  0  0  0  0
    0.3420   -5.8399    3.6933 H   0  0  0  0  0  0  0  0  0  0  0  0
    1.6973   -5.8507    4.8201 H   0  0  0  0  0  0  0  0  0  0  0  0
    0.5538   -3.5332    3.2549 H   0  0  0  0  0  0  0  0  0  0  0  0
   -0.2726   -3.6679    5.5847 H   0  0  0  0  0  0  0  0  0  0  0  0
    1.3807   -3.6018    6.1760 H   0  0  0  0  0  0  0  0  0  0  0  0
    0.0323   -1.5920    4.3622 H   0  0  0  0  0  0  0  0  0  0  0  0
   -1.0632   -1.2094    6.2810 H   0  0  0  0  0  0  0  0  0  0  0  0
    0.2471   -1.6439    7.3446 H   0  0  0  0  0  0  0  0  0  0  0  0
   -0.5188    0.8509    7.1732 H   0  0  0  0  0  0  0  0  0  0  0  0
    1.1681    0.4998    7.2943 H   0  0  0  0  0  0  0  0  0  0  0  0
   -0.6260    1.9494    3.6647 H   0  0  0  0  0  0  0  0  0  0  0  0
   -1.5598    1.2509    4.9785 H   0  0  0  0  0  0  0  0  0  0  0  0
   -0.7409    0.2271    3.8196 H   0  0  0  0  0  0  0  0  0  0  0  0
    1.7072    2.6506    6.4557 H   0  0  0  0  0  0  0  0  0  0  0  0
   -1.0441    3.5013    5.4556 H   0  0  0  0  0  0  0  0  0  0  0  0
   -0.6497    3.0273    7.0871 H   0  0  0  0  0  0  0  0  0  0  0  0
   -0.7695    5.4794    6.8370 H   0  0  0  0  0  0  0  0  0  0  0  0
    0.8366    4.9854    7.3358 H   0  0  0  0  0  0  0  0  0  0  0  0
    1.4613    5.4019    2.5629 H   0  0  0  0  0  0  0  0  0  0  0  0
    3.1970    5.3056    2.8632 H   0  0  0  0  0  0  0  0  0  0  0  0
    2.2989    6.7037    3.3879 H   0  0  0  0  0  0  0  0  0  0  0  0
    2.9746    4.6848    6.5685 H   0  0  0  0  0  0  0  0  0  0  0  0
    3.3350    6.2014    5.7619 H   0  0  0  0  0  0  0  0  0  0  0  0
    4.0480    4.6995    5.1846 H   0  0  0  0  0  0  0  0  0  0  0  0
    2.7149    3.2150    2.6149 H   0  0  0  0  0  0  0  0  0  0  0  0
    2.7063    0.8825    5.2449 H   0  0  0  0  0  0  0  0  0  0  0  0
    4.0712   -0.8833    5.7109 H   0  0  0  0  0  0  0  0  0  0  0  0
    3.2736   -2.3537    6.1876 H   0  0  0  0  0  0  0  0  0  0  0  0
    2.7984   -0.8459    6.8878 H   0  0  0  0  0  0  0  0  0  0  0  0
    1.9757   -1.6735    2.6717 H   0  0  0  0  0  0  0  0  0  0  0  0
    3.8959   -0.5950    2.8804 H   0  0  0  0  0  0  0  0  0  0  0  0
    3.3216   -3.7244    4.4941 H   0  0  0  0  0  0  0  0  0  0  0  0
  1  2  1  0
  1 33  1  0
  1 34  1  0
  1 35  1  0
  2  3  1  0
  3  4  2  0
  3  5  1  0
  5 32  1  0
  5  6  1  0
  5 36  1  1
  6  7  1  0
  6 37  1  0
  6 38  1  0
  7 31  1  0
  7  8  1  0
  7 39  1  6
  8  9  1  0
  8 40  1  0
  8 41  1  0
  9 27  1  0
  9 10  1  0
  9 42  1  6
 10 11  1  0
 10 43  1  0
 10 44  1  0
 11 12  1  0
 11 45  1  0
 11 46  1  0
 12 26  1  0
 12 13  1  6
 12 14  1  0
 13 47  1  0
 13 48  1  0
 13 49  1  0
 14 22  1  0
 14 15  1  0
 14 50  1  1
 15 16  1  0
 15 51  1  0
 15 52  1  0
 16 17  1  0
 16 53  1  0
 16 54  1  0
 17 18  2  0
 17 19  1  0
 19 20  1  0
 19 21  1  0
 19 22  1  0
 20 55  1  0
 20 56  1  0
 20 57  1  0
 21 58  1  0
 21 59  1  0
 21 60  1  0
 22 23  2  0
 23 24  1  0
 23 61  1  0
 24 25  2  0
 24 26  1  0
 26 27  1  0
 26 62  1  1
 27 28  1  1
 27 29  1  0
 28 63  1  0
 28 64  1  0
 28 65  1  0
 29 30  1  0
 29 31  1  0
 29 66  1  6
 30 67  1  0
 31 32  1  0
 31 68  1  1
M  END
>  <i_m_ct_stereo_status>  (191) 
1

>  <s_m_source_file>  (191) 
/var/tmp/pbs.5076255.sched01/tmp5eg4wc32/41mqp692j8.sdf

>  <i_m_source_file_index>  (191) 
40

>  <i_lp_mmshare_version>  (191) 
48012

>  <i_f3d_flags>  (191) 
0

>  <s_epik_input>  (191) 
W0NIM11PQyg9TylbQ0BIXShbQ0gyXTEpT1tDQEBIXShbQ0BASF0yW09IXSlbQ0BASF0xW0NIMl1bQ0BASF0oW0NIMl1bQ0gyXTMpW0NAXTIoW0NIM10pW0NASF00Qyg9TylbQ0hdPUMoW0NAQEhdNVtDQF0zNFtDSDNdKUMoW0NIM10pKFtDSDNdKUMoPU8pW0NIMl1bQ0gyXTU=

>  <s_epik_cmdline>  (191) 
J2VwaWtfcHl0aG9uJywgJy1waHQnLCAnMi4wJywgJy1waCcsICc3LjAnLCAnLXRuJywgJzgnLCAnLW1hJywgJzIwMCcsICctaW1hZScsICc8aW5maWxlLm1hZT4nLCAnLW9tYWUnLCAnPG91dGZpbGUubWFlPic=

>  <r_lp_tautomer_probability>  (191) 
1

>  <r_epik_Ionization_Penalty>  (191) 
4.46181e-08

>  <r_epik_Ionization_Penalty_Charging>  (191) 
0

>  <r_epik_Ionization_Penalty_Neutral>  (191) 
4.46181e-08

>  <r_epik_State_Penalty>  (191) 
-0

>  <r_epik_Charging_Adjusted_Penalty>  (191) 
0

>  <i_epik_Tot_Q>  (191) 
0

>  <i_epik_Tot_abs_Q>  (191) 
0

>  <s_epik_Chemistry_Notes>  (191) 
This compound has an ester and may undergo hydrolysis at high or low pH.

>  <s_lp_Force_Field>  (191) 
OPLS3e

>  <r_lp_Energy>  (191) 
61.3873

>  <b_lp_Chiralities_Consistent>  (191) 
1

>  <s_lp_Variant>  (191) 
57:0-1

>  <s_i_glide_gridfile>  (191) 
pfpi4k_grid

>  <i_i_glide_lignum>  (191) 
40

>  <i_i_glide_rotatable_bonds>  (191) 
3

>  <r_i_docking_score>  (191) 
-3.03153

>  <r_i_glide_ligand_efficiency>  (191) 
-0.0947352

>  <r_i_glide_ligand_efficiency_sa>  (191) 
-0.300766

>  <r_i_glide_ligand_efficiency_ln>  (191) 
-0.678842

>  <r_i_glide_gscore>  (191) 
-3.03153

>  <r_i_glide_lipo>  (191) 
-0.1054

>  <r_i_glide_hbond>  (191) 
-0.172224

>  <r_i_glide_metal>  (191) 
-0

>  <r_i_glide_rewards>  (191) 
-0.877997

>  <r_i_glide_evdw>  (191) 
-27.4967

>  <r_i_glide_ecoul>  (191) 
-3.51381

>  <r_i_glide_erotb>  (191) 
0.101202

>  <r_i_glide_esite>  (191) 
-0.0752004

>  <r_i_glide_emodel>  (191) 
-39.4478

>  <r_i_glide_energy>  (191) 
-31.0105

>  <r_i_glide_einternal>  (191) 
6.60993

>  <r_i_glide_intrahb_reward>  (191) 
-0.5

>  <i_i_glide_confnum>  (191) 
3

>  <i_i_glide_posenum>  (191) 
15

>  <r_i_glide_eff_state_penalty>  (191) 
0

>  <ligand_id>  (191) 
57

>  <original_smiles>  (191) 
COC(=O)C1CC2CC3CCC4(C)C5CCC(=O)C(C)(C)C5=CC(=O)C4C3(C)C(O)C2O1

>  <smiles>  (191) 
[H]OC1([H])C2([H])OC([H])(C(=O)OC([H])([H])[H])C([H])([H])C2([H])C([H])([H])C2([H])C([H])([H])C([H])([H])C3(C([H])([H])[H])C4([H])C(=C([H])C(=O)C3([H])C12C([H])([H])[H])C(C([H])([H])[H])(C([H])([H])[H])C(=O)C([H])([H])C4([H])[H]

$$$$
58:0:0
     RDKit          3D

 54 59  0  0  1  0  0  0  0  0999 V2000
    3.2089    1.7262    5.2091 C   0  0  0  0  0  0  0  0  0  0  0  0
    3.3053    0.8832    3.9650 N   0  0  0  0  0  0  0  0  0  0  0  0
    4.5155    0.0059    3.9559 C   0  0  0  0  0  0  0  0  0  0  0  0
    2.0503    0.1674    3.5167 C   0  0  2  0  0  0  0  0  0  0  0  0
    0.7175    0.8111    4.0515 C   0  0  0  0  0  0  0  0  0  0  0  0
    0.5980    1.9103    3.4323 O   0  0  0  0  0  0  0  0  0  0  0  0
   -0.1124    0.1325    4.9911 C   0  0  0  0  0  0  0  0  0  0  0  0
   -1.3759    0.6478    5.5584 C   0  0  0  0  0  0  0  0  0  0  0  0
   -1.7793    1.7911    5.0208 N   0  0  0  0  0  0  0  0  0  0  0  0
   -2.0297    0.1524    6.4792 O   0  0  0  0  0  0  0  0  0  0  0  0
    0.4158   -1.1660    5.4690 C   0  0  0  0  0  0  0  0  0  0  0  0
   -0.1863   -2.3639    5.6162 C   0  0  0  0  0  0  0  0  0  0  0  0
    0.8280   -3.5118    5.8325 C   0  0  1  0  0  0  0  0  0  0  0  0
    0.3163   -4.4961    6.9064 C   0  0  0  0  0  0  0  0  0  0  0  0
    0.0141   -5.7924    6.6417 C   0  0  0  0  0  0  0  0  0  0  0  0
    0.2041   -6.3601    5.2956 C   0  0  0  0  0  0  0  0  0  0  0  0
   -0.2212   -7.6215    4.8232 C   0  0  0  0  0  0  0  0  0  0  0  0
    0.0119   -8.0043    3.4766 C   0  0  0  0  0  0  0  0  0  0  0  0
    0.6719   -7.1454    2.5619 C   0  0  0  0  0  0  0  0  0  0  0  0
    0.8679   -7.5270    1.2700 O   0  0  0  0  0  0  0  0  0  0  0  0
    1.1113   -5.8854    3.0061 C   0  0  0  0  0  0  0  0  0  0  0  0
    0.8259   -5.5945    4.3174 C   0  0  0  0  0  0  0  0  0  0  0  0
    1.3799   -4.2645    4.5737 C   0  0  1  0  0  0  0  0  0  0  0  0
    1.5159   -3.6763    3.1550 C   0  0  2  0  0  0  0  0  0  0  0  0
    1.7414   -4.8567    2.3490 O   0  0  0  0  0  0  0  0  0  0  0  0
    2.5859   -2.5316    3.0541 C   0  0  1  0  0  0  0  0  0  0  0  0
    2.7259   -2.1226    1.6940 O   0  0  0  0  0  0  0  0  0  0  0  0
    1.9973   -1.3434    3.8695 C   0  0  1  0  0  0  0  0  0  0  0  0
    1.8694   -1.4170    5.4187 C   0  0  2  0  0  0  0  0  0  0  0  0
    2.0473   -2.6876    6.2346 C   0  0  0  0  0  0  0  0  0  0  0  0
    2.9569    1.1783    6.1166 H   0  0  0  0  0  0  0  0  0  0  0  0
    2.4636    2.5187    5.0942 H   0  0  0  0  0  0  0  0  0  0  0  0
    4.1741    2.2058    5.3975 H   0  0  0  0  0  0  0  0  0  0  0  0
    4.4166   -0.8438    4.6364 H   0  0  0  0  0  0  0  0  0  0  0  0
    5.3908    0.5508    4.3073 H   0  0  0  0  0  0  0  0  0  0  0  0
    4.7375   -0.3921    2.9543 H   0  0  0  0  0  0  0  0  0  0  0  0
    2.0391    0.2534    2.4251 H   0  0  0  0  0  0  0  0  0  0  0  0
   -1.2101    2.1671    4.2714 H   0  0  0  0  0  0  0  0  0  0  0  0
   -2.6537    2.2077    5.3033 H   0  0  0  0  0  0  0  0  0  0  0  0
   -1.2560   -2.5376    5.5636 H   0  0  0  0  0  0  0  0  0  0  0  0
    0.2405   -4.0963    7.9165 H   0  0  0  0  0  0  0  0  0  0  0  0
   -0.3132   -6.4419    7.4415 H   0  0  0  0  0  0  0  0  0  0  0  0
   -0.7173   -8.3079    5.4981 H   0  0  0  0  0  0  0  0  0  0  0  0
   -0.3015   -8.9864    3.1672 H   0  0  0  0  0  0  0  0  0  0  0  0
    0.6136   -8.4241    1.0782 H   0  0  0  0  0  0  0  0  0  0  0  0
    2.3926   -4.5780    4.8308 H   0  0  0  0  0  0  0  0  0  0  0  0
    0.5302   -3.3133    2.8742 H   0  0  0  0  0  0  0  0  0  0  0  0
    3.5652   -2.8460    3.4254 H   0  0  0  0  0  0  0  0  0  0  0  0
    1.8964   -1.7956    1.3659 H   0  0  0  0  0  0  0  0  0  0  0  0
    1.0217   -1.4371    3.3603 H   0  0  0  0  0  0  0  0  0  0  0  0
    2.4550   -0.6978    5.9588 H   0  0  0  0  0  0  0  0  0  0  0  0
    1.9361   -2.3939    7.2743 H   0  0  0  0  0  0  0  0  0  0  0  0
    3.0470   -3.1319    6.1694 H   0  0  0  0  0  0  0  0  0  0  0  0
    3.4624    1.5567    3.2239 H   0  0  0  0  0  0  0  0  0  0  0  0
  1  2  1  0
  1 31  1  0
  1 32  1  0
  1 33  1  0
  2  3  1  0
  2  4  1  0
  2 54  1  0
  3 34  1  0
  3 35  1  0
  3 36  1  0
  4 28  1  0
  4  5  1  0
  4 37  1  6
  5  6  1  0
  5  7  2  0
  7  8  1  0
  7 11  1  0
  8  9  1  0
  8 10  2  0
  9 38  1  0
  9 39  1  0
 11 29  1  0
 11 12  2  0
 13 12  1  6
 12 40  1  0
 13 23  1  0
 13 30  1  0
 13 14  1  0
 14 15  2  0
 14 41  1  0
 15 16  1  0
 15 42  1  0
 16 22  2  0
 16 17  1  0
 17 18  2  0
 17 43  1  0
 18 19  1  0
 18 44  1  0
 19 20  1  0
 19 21  2  0
 20 45  1  0
 21 25  1  0
 21 22  1  0
 22 23  1  0
 23 24  1  0
 23 46  1  1
 24 25  1  0
 24 26  1  0
 24 47  1  6
 26 27  1  0
 26 28  1  0
 26 48  1  1
 27 49  1  0
 28 29  1  0
 28 50  1  6
 29 30  1  0
 29 51  1  1
 30 52  1  0
 30 53  1  0
M  CHG  2   2   1   6  -1
M  END
>  <i_m_ct_stereo_status>  (192) 
1

>  <s_m_source_file>  (192) 
/var/tmp/pbs.5076255.sched01/tmp5eg4wc32/41mqp692j8.sdf

>  <i_m_source_file_index>  (192) 
41

>  <i_lp_mmshare_version>  (192) 
48012

>  <i_f3d_flags>  (192) 
0

>  <s_epik_input>  (192) 
W0NIM11OKFtDSDNdKVtDQEBIXTFDKD1PKVtDQEBIXShDKD1PKVtOSDJdKUMoPVtDSF0yKVtDQEhdKFtDSDJdMylbQ0BASF0xW0NASF0oW09IXSlbQ0BIXTRPYzVjKFtPSF0pW2NIXVtjSF1jKFtDSF09W0NIXTYpYzVbQ0BASF00W0NAXTIzNg==

>  <s_epik_cmdline>  (192) 
J2VwaWtfcHl0aG9uJywgJy1waHQnLCAnMi4wJywgJy1waCcsICc3LjAnLCAnLXRuJywgJzgnLCAnLW1hJywgJzIwMCcsICctaW1hZScsICc8aW5maWxlLm1hZT4nLCAnLW9tYWUnLCAnPG91dGZpbGUubWFlPic=

>  <r_epik_Ionization_Penalty>  (192) 
0.0269653

>  <r_epik_Ionization_Penalty_Charging>  (192) 
0.00988569

>  <r_epik_Ionization_Penalty_Neutral>  (192) 
0.0170796

>  <r_epik_State_Penalty>  (192) 
0.0560125

>  <r_epik_Charging_Adjusted_Penalty>  (192) 
0.0658982

>  <i_epik_Tot_Q>  (192) 
0

>  <i_epik_Tot_abs_Q>  (192) 
2

>  <s_lp_Force_Field>  (192) 
OPLS3e

>  <r_lp_Energy>  (192) 
97.1985

>  <b_lp_Chiralities_Consistent>  (192) 
1

>  <s_lp_Variant>  (192) 
58:0-1

>  <s_i_glide_gridfile>  (192) 
pfpi4k_grid

>  <i_i_glide_lignum>  (192) 
41

>  <i_i_glide_rotatable_bonds>  (192) 
4

>  <r_i_docking_score>  (192) 
-3.58862

>  <r_i_glide_ligand_efficiency>  (192) 
-0.119621

>  <r_i_glide_ligand_efficiency_sa>  (192) 
-0.371689

>  <r_i_glide_ligand_efficiency_ln>  (192) 
-0.815374

>  <r_i_glide_gscore>  (192) 
-3.58862

>  <r_i_glide_lipo>  (192) 
-0.0533743

>  <r_i_glide_hbond>  (192) 
-0.160994

>  <r_i_glide_metal>  (192) 
-0

>  <r_i_glide_rewards>  (192) 
-0.624225

>  <r_i_glide_evdw>  (192) 
-20.9915

>  <r_i_glide_ecoul>  (192) 
-10.9312

>  <r_i_glide_erotb>  (192) 
0

>  <r_i_glide_esite>  (192) 
-0.0607675

>  <r_i_glide_emodel>  (192) 
-35.2455

>  <r_i_glide_energy>  (192) 
-31.9227

>  <r_i_glide_einternal>  (192) 
7.84057

>  <r_i_glide_intrahb_reward>  (192) 
-0

>  <i_i_glide_confnum>  (192) 
1

>  <i_i_glide_posenum>  (192) 
11

>  <r_i_glide_eff_state_penalty>  (192) 
0

>  <ligand_id>  (192) 
58

>  <original_smiles>  (192) 
CN(C)C1C(=O)C(C(N)=O)C2=CC34C=Cc5ccc(O)c6c5C3C(O6)C(O)C1C2C4

>  <smiles>  (192) 
[H]Oc1c([H])c([H])c2c3c1OC1([H])C([H])(O[H])C4([H])C5([H])C(=C([H])C(C([H])=C2[H])(C5([H])[H])C31[H])C(C(=O)N([H])[H])=C([O-])C4([H])[N+]([H])(C([H])([H])[H])C([H])([H])[H]

$$$$
58:0:1
     RDKit          3D

 54 59  0  0  1  0  0  0  0  0999 V2000
    6.4033   -2.0552   -0.4140 C   0  0  0  0  0  0  0  0  0  0  0  0
    5.0868   -2.5811   -0.8988 N   0  0  0  0  0  0  0  0  0  0  0  0
    5.2338   -3.8583   -1.6562 C   0  0  0  0  0  0  0  0  0  0  0  0
    3.9476   -2.5956    0.0924 C   0  0  2  0  0  0  0  0  0  0  0  0
    4.1050   -1.5542    1.2723 C   0  0  0  0  0  0  0  0  0  0  0  0
    3.9478   -0.4122    0.7556 O   0  0  0  0  0  0  0  0  0  0  0  0
    4.3222   -1.9830    2.6127 C   0  0  0  0  0  0  0  0  0  0  0  0
    4.4857   -1.1006    3.7800 C   0  0  0  0  0  0  0  0  0  0  0  0
    4.0213    0.1366    3.5910 N   0  0  0  0  0  0  0  0  0  0  0  0
    4.9991   -1.4102    4.8484 O   0  0  0  0  0  0  0  0  0  0  0  0
    4.4648   -3.4427    2.7974 C   0  0  0  0  0  0  0  0  0  0  0  0
    3.9158   -4.2782    3.7006 C   0  0  0  0  0  0  0  0  0  0  0  0
    4.0948   -5.7663    3.3106 C   0  0  1  0  0  0  0  0  0  0  0  0
    4.4359   -6.6150    4.5525 C   0  0  0  0  0  0  0  0  0  0  0  0
    3.6261   -7.5920    5.0320 C   0  0  0  0  0  0  0  0  0  0  0  0
    2.3638   -7.9303    4.3555 C   0  0  0  0  0  0  0  0  0  0  0  0
    1.3406   -8.7855    4.8229 C   0  0  0  0  0  0  0  0  0  0  0  0
    0.1637   -8.9904    4.0543 C   0  0  0  0  0  0  0  0  0  0  0  0
   -0.0378   -8.3516    2.8069 C   0  0  0  0  0  0  0  0  0  0  0  0
   -1.1604   -8.6012    2.0787 O   0  0  0  0  0  0  0  0  0  0  0  0
    0.9545   -7.4782    2.3183 C   0  0  0  0  0  0  0  0  0  0  0  0
    2.0586   -7.3470    3.1338 C   0  0  0  0  0  0  0  0  0  0  0  0
    2.9794   -6.4449    2.4346 C   0  0  1  0  0  0  0  0  0  0  0  0
    2.0441   -5.7194    1.4449 C   0  0  2  0  0  0  0  0  0  0  0  0
    1.0124   -6.7017    1.1872 O   0  0  0  0  0  0  0  0  0  0  0  0
    2.8107   -5.1560    0.1987 C   0  0  1  0  0  0  0  0  0  0  0  0
    1.8367   -4.6529   -0.7154 O   0  0  0  0  0  0  0  0  0  0  0  0
    3.6801   -3.9856    0.7379 C   0  0  1  0  0  0  0  0  0  0  0  0
    4.9049   -4.2724    1.6583 C   0  0  2  0  0  0  0  0  0  0  0  0
    5.2204   -5.6203    2.2993 C   0  0  0  0  0  0  0  0  0  0  0  0
    6.8810   -2.6106    0.3831 H   0  0  0  0  0  0  0  0  0  0  0  0
    6.3177   -1.0273   -0.0552 H   0  0  0  0  0  0  0  0  0  0  0  0
    7.1317   -2.0746   -1.2259 H   0  0  0  0  0  0  0  0  0  0  0  0
    5.4383   -4.7088   -1.0011 H   0  0  0  0  0  0  0  0  0  0  0  0
    6.0817   -3.8174   -2.3408 H   0  0  0  0  0  0  0  0  0  0  0  0
    4.3428   -4.1046   -2.2476 H   0  0  0  0  0  0  0  0  0  0  0  0
    3.0515   -2.3183   -0.4740 H   0  0  0  0  0  0  0  0  0  0  0  0
    3.6630    0.3517    2.6713 H   0  0  0  0  0  0  0  0  0  0  0  0
    4.0726    0.8307    4.3235 H   0  0  0  0  0  0  0  0  0  0  0  0
    3.3812   -3.9731    4.5895 H   0  0  0  0  0  0  0  0  0  0  0  0
    5.3892   -6.4094    5.0269 H   0  0  0  0  0  0  0  0  0  0  0  0
    3.9199   -8.1671    5.8969 H   0  0  0  0  0  0  0  0  0  0  0  0
    1.4653   -9.3033    5.7641 H   0  0  0  0  0  0  0  0  0  0  0  0
   -0.5728   -9.6836    4.4255 H   0  0  0  0  0  0  0  0  0  0  0  0
   -0.9410   -8.8239    1.1877 H   0  0  0  0  0  0  0  0  0  0  0  0
    3.4952   -7.2001    1.8335 H   0  0  0  0  0  0  0  0  0  0  0  0
    1.5274   -4.9337    1.9972 H   0  0  0  0  0  0  0  0  0  0  0  0
    3.4044   -5.9191   -0.3002 H   0  0  0  0  0  0  0  0  0  0  0  0
    2.1224   -4.8529   -1.6100 H   0  0  0  0  0  0  0  0  0  0  0  0
    2.8339   -3.5691    1.3013 H   0  0  0  0  0  0  0  0  0  0  0  0
    5.8527   -3.9931    1.2686 H   0  0  0  0  0  0  0  0  0  0  0  0
    6.1595   -5.4912    2.8367 H   0  0  0  0  0  0  0  0  0  0  0  0
    5.4101   -6.4207    1.5796 H   0  0  0  0  0  0  0  0  0  0  0  0
    4.7799   -1.9071   -1.5804 H   0  0  0  0  0  0  0  0  0  0  0  0
  1  2  1  0
  1 31  1  0
  1 32  1  0
  1 33  1  0
  2  3  1  0
  2  4  1  0
  2 54  1  0
  3 34  1  0
  3 35  1  0
  3 36  1  0
  4 28  1  0
  4  5  1  0
  4 37  1  6
  5  6  1  0
  5  7  2  0
  7  8  1  0
  7 11  1  0
  8  9  1  0
  8 10  2  0
  9 38  1  0
  9 39  1  0
 11 29  1  0
 11 12  2  0
 13 12  1  1
 12 40  1  0
 13 23  1  0
 13 30  1  0
 13 14  1  0
 14 15  2  0
 14 41  1  0
 15 16  1  0
 15 42  1  0
 16 22  2  0
 16 17  1  0
 17 18  2  0
 17 43  1  0
 18 19  1  0
 18 44  1  0
 19 20  1  0
 19 21  2  0
 20 45  1  0
 21 25  1  0
 21 22  1  0
 22 23  1  0
 23 24  1  0
 23 46  1  6
 24 25  1  0
 24 26  1  0
 24 47  1  1
 26 27  1  0
 26 28  1  0
 26 48  1  6
 27 49  1  0
 28 29  1  0
 28 50  1  1
 29 30  1  0
 29 51  1  6
 30 52  1  0
 30 53  1  0
M  CHG  2   2   1   6  -1
M  END
>  <i_m_ct_stereo_status>  (193) 
1

>  <s_m_source_file>  (193) 
/var/tmp/pbs.5076255.sched01/tmp5eg4wc32/41mqp692j8.sdf

>  <i_m_source_file_index>  (193) 
41

>  <i_lp_mmshare_version>  (193) 
48012

>  <i_f3d_flags>  (193) 
0

>  <s_epik_input>  (193) 
W0NIM11OKFtDSDNdKVtDQEBIXTFDKD1PKVtDQEBIXShDKD1PKVtOSDJdKUMoPVtDSF0yKVtDQEhdKFtDSDJdMylbQ0BASF0xW0NASF0oW09IXSlbQ0BIXTRPYzVjKFtPSF0pW2NIXVtjSF1jKFtDSF09W0NIXTYpYzVbQ0BASF00W0NAXTIzNg==

>  <s_epik_cmdline>  (193) 
J2VwaWtfcHl0aG9uJywgJy1waHQnLCAnMi4wJywgJy1waCcsICc3LjAnLCAnLXRuJywgJzgnLCAnLW1hJywgJzIwMCcsICctaW1hZScsICc8aW5maWxlLm1hZT4nLCAnLW9tYWUnLCAnPG91dGZpbGUubWFlPic=

>  <r_epik_Ionization_Penalty>  (193) 
0.0269653

>  <r_epik_Ionization_Penalty_Charging>  (193) 
0.00988569

>  <r_epik_Ionization_Penalty_Neutral>  (193) 
0.0170796

>  <r_epik_State_Penalty>  (193) 
0.0560125

>  <r_epik_Charging_Adjusted_Penalty>  (193) 
0.0658982

>  <i_epik_Tot_Q>  (193) 
0

>  <i_epik_Tot_abs_Q>  (193) 
2

>  <s_lp_Force_Field>  (193) 
OPLS3e

>  <r_lp_Energy>  (193) 
97.1985

>  <b_lp_Chiralities_Consistent>  (193) 
1

>  <s_lp_Variant>  (193) 
58:0-1

>  <s_i_glide_gridfile>  (193) 
pfpi4k_grid

>  <i_i_glide_lignum>  (193) 
41

>  <i_i_glide_rotatable_bonds>  (193) 
4

>  <r_i_docking_score>  (193) 
-3.50391

>  <r_i_glide_ligand_efficiency>  (193) 
-0.116797

>  <r_i_glide_ligand_efficiency_sa>  (193) 
-0.362915

>  <r_i_glide_ligand_efficiency_ln>  (193) 
-0.796125

>  <r_i_glide_gscore>  (193) 
-3.50391

>  <r_i_glide_lipo>  (193) 
-0.0710404

>  <r_i_glide_hbond>  (193) 
-0.0245208

>  <r_i_glide_metal>  (193) 
-0

>  <r_i_glide_rewards>  (193) 
-0.673616

>  <r_i_glide_evdw>  (193) 
-23.1406

>  <r_i_glide_ecoul>  (193) 
-10.4643

>  <r_i_glide_erotb>  (193) 
0

>  <r_i_glide_esite>  (193) 
-0.00804713

>  <r_i_glide_emodel>  (193) 
-33.7789

>  <r_i_glide_energy>  (193) 
-33.605

>  <r_i_glide_einternal>  (193) 
10.9548

>  <r_i_glide_intrahb_reward>  (193) 
-0

>  <i_i_glide_confnum>  (193) 
1

>  <i_i_glide_posenum>  (193) 
2

>  <r_i_glide_eff_state_penalty>  (193) 
0

>  <ligand_id>  (193) 
58

>  <original_smiles>  (193) 
CN(C)C1C(=O)C(C(N)=O)C2=CC34C=Cc5ccc(O)c6c5C3C(O6)C(O)C1C2C4

>  <smiles>  (193) 
[H]Oc1c([H])c([H])c2c3c1OC1([H])C([H])(O[H])C4([H])C5([H])C(=C([H])C(C([H])=C2[H])(C5([H])[H])C31[H])C(C(=O)N([H])[H])=C([O-])C4([H])[N+]([H])(C([H])([H])[H])C([H])([H])[H]

$$$$
58:0:2
     RDKit          3D

 54 59  0  0  1  0  0  0  0  0999 V2000
    5.4081   -3.1141   -1.8491 C   0  0  0  0  0  0  0  0  0  0  0  0
    5.6627   -3.4197   -0.4184 N   0  0  0  0  0  0  0  0  0  0  0  0
    6.9947   -2.8971    0.0117 C   0  0  0  0  0  0  0  0  0  0  0  0
    4.4905   -3.1030    0.4717 C   0  0  2  0  0  0  0  0  0  0  0  0
    4.7718   -1.9800    1.5553 C   0  0  0  0  0  0  0  0  0  0  0  0
    4.8578   -0.8877    0.9383 O   0  0  0  0  0  0  0  0  0  0  0  0
    4.7974   -2.2853    2.9455 C   0  0  0  0  0  0  0  0  0  0  0  0
    4.9847   -1.2958    4.0142 C   0  0  0  0  0  0  0  0  0  0  0  0
    5.7714   -0.2742    3.6742 N   0  0  0  0  0  0  0  0  0  0  0  0
    4.5203   -1.3682    5.1479 O   0  0  0  0  0  0  0  0  0  0  0  0
    4.6342   -3.7089    3.2879 C   0  0  0  0  0  0  0  0  0  0  0  0
    3.8621   -4.3211    4.2092 C   0  0  0  0  0  0  0  0  0  0  0  0
    3.7886   -5.8493    4.0142 C   0  0  1  0  0  0  0  0  0  0  0  0
    3.8489   -6.5815    5.3657 C   0  0  0  0  0  0  0  0  0  0  0  0
    2.8425   -7.3363    5.8689 C   0  0  0  0  0  0  0  0  0  0  0  0
    1.5946   -7.5342    5.1167 C   0  0  0  0  0  0  0  0  0  0  0  0
    0.3987   -8.1500    5.5488 C   0  0  0  0  0  0  0  0  0  0  0  0
   -0.7294   -8.2511    4.6817 C   0  0  0  0  0  0  0  0  0  0  0  0
   -0.6945   -7.7358    3.3559 C   0  0  0  0  0  0  0  0  0  0  0  0
   -1.7865   -7.8372    2.5527 O   0  0  0  0  0  0  0  0  0  0  0  0
    0.4750   -7.0983    2.8998 C   0  0  0  0  0  0  0  0  0  0  0  0
    1.5102   -7.0643    3.8083 C   0  0  0  0  0  0  0  0  0  0  0  0
    2.6394   -6.4325    3.1137 C   0  0  1  0  0  0  0  0  0  0  0  0
    1.9521   -5.6835    1.9464 C   0  0  2  0  0  0  0  0  0  0  0  0
    0.7777   -6.4922    1.6976 O   0  0  0  0  0  0  0  0  0  0  0  0
    2.9212   -5.4267    0.7289 C   0  0  1  0  0  0  0  0  0  0  0  0
    2.1537   -4.8553   -0.3203 O   0  0  0  0  0  0  0  0  0  0  0  0
    3.9752   -4.3724    1.1975 C   0  0  1  0  0  0  0  0  0  0  0  0
    5.0321   -4.7293    2.2930 C   0  0  2  0  0  0  0  0  0  0  0  0
    5.0166   -6.0304    3.1103 C   0  0  0  0  0  0  0  0  0  0  0  0
    5.2735   -2.0392   -1.9999 H   0  0  0  0  0  0  0  0  0  0  0  0
    4.5282   -3.6393   -2.2242 H   0  0  0  0  0  0  0  0  0  0  0  0
    6.2598   -3.4310   -2.4536 H   0  0  0  0  0  0  0  0  0  0  0  0
    7.0179   -1.8031    0.0313 H   0  0  0  0  0  0  0  0  0  0  0  0
    7.7633   -3.2155   -0.6967 H   0  0  0  0  0  0  0  0  0  0  0  0
    7.2980   -3.2520    0.9976 H   0  0  0  0  0  0  0  0  0  0  0  0
    3.6688   -2.7441   -0.1543 H   0  0  0  0  0  0  0  0  0  0  0  0
    6.1442   -0.2585    2.7338 H   0  0  0  0  0  0  0  0  0  0  0  0
    5.9556    0.4644    4.3362 H   0  0  0  0  0  0  0  0  0  0  0  0
    3.3086   -3.8256    4.9878 H   0  0  0  0  0  0  0  0  0  0  0  0
    4.7690   -6.4864    5.9243 H   0  0  0  0  0  0  0  0  0  0  0  0
    2.9395   -7.8364    6.8169 H   0  0  0  0  0  0  0  0  0  0  0  0
    0.3329   -8.5479    6.5486 H   0  0  0  0  0  0  0  0  0  0  0  0
   -1.6172   -8.7393    5.0454 H   0  0  0  0  0  0  0  0  0  0  0  0
   -2.3876   -8.5082    2.8536 H   0  0  0  0  0  0  0  0  0  0  0  0
    3.0485   -7.3369    2.6574 H   0  0  0  0  0  0  0  0  0  0  0  0
    1.5411   -4.7532    2.3432 H   0  0  0  0  0  0  0  0  0  0  0  0
    3.3980   -6.3453    0.3743 H   0  0  0  0  0  0  0  0  0  0  0  0
    2.5451   -5.0609   -1.1650 H   0  0  0  0  0  0  0  0  0  0  0  0
    3.1726   -3.7731    1.6407 H   0  0  0  0  0  0  0  0  0  0  0  0
    6.0502   -4.5847    1.9572 H   0  0  0  0  0  0  0  0  0  0  0  0
    5.9052   -6.0125    3.7409 H   0  0  0  0  0  0  0  0  0  0  0  0
    5.0995   -6.9422    2.5168 H   0  0  0  0  0  0  0  0  0  0  0  0
    5.7232   -4.4327   -0.3719 H   0  0  0  0  0  0  0  0  0  0  0  0
  1  2  1  0
  1 31  1  0
  1 32  1  0
  1 33  1  0
  2  3  1  0
  2  4  1  0
  2 54  1  0
  3 34  1  0
  3 35  1  0
  3 36  1  0
  4 28  1  0
  4  5  1  0
  4 37  1  6
  5  6  1  0
  5  7  2  0
  7  8  1  0
  7 11  1  0
  8  9  1  0
  8 10  2  0
  9 38  1  0
  9 39  1  0
 11 29  1  0
 11 12  2  0
 13 12  1  1
 12 40  1  0
 13 23  1  0
 13 30  1  0
 13 14  1  0
 14 15  2  0
 14 41  1  0
 15 16  1  0
 15 42  1  0
 16 22  2  0
 16 17  1  0
 17 18  2  0
 17 43  1  0
 18 19  1  0
 18 44  1  0
 19 20  1  0
 19 21  2  0
 20 45  1  0
 21 25  1  0
 21 22  1  0
 22 23  1  0
 23 24  1  0
 23 46  1  6
 24 25  1  0
 24 26  1  0
 24 47  1  1
 26 27  1  0
 26 28  1  0
 26 48  1  6
 27 49  1  0
 28 29  1  0
 28 50  1  1
 29 30  1  0
 29 51  1  6
 30 52  1  0
 30 53  1  0
M  CHG  2   2   1   6  -1
M  END
>  <i_m_ct_stereo_status>  (194) 
1

>  <s_m_source_file>  (194) 
/var/tmp/pbs.5076255.sched01/tmp5eg4wc32/41mqp692j8.sdf

>  <i_m_source_file_index>  (194) 
41

>  <i_lp_mmshare_version>  (194) 
48012

>  <i_f3d_flags>  (194) 
0

>  <s_epik_input>  (194) 
W0NIM11OKFtDSDNdKVtDQEBIXTFDKD1PKVtDQEBIXShDKD1PKVtOSDJdKUMoPVtDSF0yKVtDQEhdKFtDSDJdMylbQ0BASF0xW0NASF0oW09IXSlbQ0BIXTRPYzVjKFtPSF0pW2NIXVtjSF1jKFtDSF09W0NIXTYpYzVbQ0BASF00W0NAXTIzNg==

>  <s_epik_cmdline>  (194) 
J2VwaWtfcHl0aG9uJywgJy1waHQnLCAnMi4wJywgJy1waCcsICc3LjAnLCAnLXRuJywgJzgnLCAnLW1hJywgJzIwMCcsICctaW1hZScsICc8aW5maWxlLm1hZT4nLCAnLW9tYWUnLCAnPG91dGZpbGUubWFlPic=

>  <r_epik_Ionization_Penalty>  (194) 
0.0269653

>  <r_epik_Ionization_Penalty_Charging>  (194) 
0.00988569

>  <r_epik_Ionization_Penalty_Neutral>  (194) 
0.0170796

>  <r_epik_State_Penalty>  (194) 
0.0560125

>  <r_epik_Charging_Adjusted_Penalty>  (194) 
0.0658982

>  <i_epik_Tot_Q>  (194) 
0

>  <i_epik_Tot_abs_Q>  (194) 
2

>  <s_lp_Force_Field>  (194) 
OPLS3e

>  <r_lp_Energy>  (194) 
97.1985

>  <b_lp_Chiralities_Consistent>  (194) 
1

>  <s_lp_Variant>  (194) 
58:0-1

>  <s_i_glide_gridfile>  (194) 
pfpi4k_grid

>  <i_i_glide_lignum>  (194) 
41

>  <i_i_glide_rotatable_bonds>  (194) 
4

>  <r_i_docking_score>  (194) 
-3.25228

>  <r_i_glide_ligand_efficiency>  (194) 
-0.108409

>  <r_i_glide_ligand_efficiency_sa>  (194) 
-0.336853

>  <r_i_glide_ligand_efficiency_ln>  (194) 
-0.738954

>  <r_i_glide_gscore>  (194) 
-3.25228

>  <r_i_glide_lipo>  (194) 
-0.339573

>  <r_i_glide_hbond>  (194) 
-0.0735545

>  <r_i_glide_metal>  (194) 
-0

>  <r_i_glide_rewards>  (194) 
-0.707943

>  <r_i_glide_evdw>  (194) 
-22.6717

>  <r_i_glide_ecoul>  (194) 
-6.65085

>  <r_i_glide_erotb>  (194) 
0

>  <r_i_glide_esite>  (194) 
0

>  <r_i_glide_emodel>  (194) 
-33.8311

>  <r_i_glide_energy>  (194) 
-29.3225

>  <r_i_glide_einternal>  (194) 
4.54148

>  <r_i_glide_intrahb_reward>  (194) 
-0

>  <i_i_glide_confnum>  (194) 
2

>  <i_i_glide_posenum>  (194) 
33

>  <r_i_glide_eff_state_penalty>  (194) 
0

>  <ligand_id>  (194) 
58

>  <original_smiles>  (194) 
CN(C)C1C(=O)C(C(N)=O)C2=CC34C=Cc5ccc(O)c6c5C3C(O6)C(O)C1C2C4

>  <smiles>  (194) 
[H]Oc1c([H])c([H])c2c3c1OC1([H])C([H])(O[H])C4([H])C5([H])C(=C([H])C(C([H])=C2[H])(C5([H])[H])C31[H])C(C(=O)N([H])[H])=C([O-])C4([H])[N+]([H])(C([H])([H])[H])C([H])([H])[H]

$$$$
58:3:0
     RDKit          3D

 53 58  0  0  1  0  0  0  0  0999 V2000
    3.4711    2.2301    4.1005 C   0  0  0  0  0  0  0  0  0  0  0  0
    3.4446    0.7724    4.2228 N   0  0  0  0  0  0  0  0  0  0  0  0
    4.6274    0.2559    3.5423 C   0  0  0  0  0  0  0  0  0  0  0  0
    2.2047    0.1416    3.6999 C   0  0  2  0  0  0  0  0  0  0  0  0
    0.8308    0.7788    4.2107 C   0  0  0  0  0  0  0  0  0  0  0  0
    0.6674    1.8675    3.5871 O   0  0  0  0  0  0  0  0  0  0  0  0
   -0.0492    0.0700    5.0719 C   0  0  0  0  0  0  0  0  0  0  0  0
   -1.3554    0.5680    5.5306 C   0  0  0  0  0  0  0  0  0  0  0  0
   -1.7989    1.5968    4.8241 N   0  0  0  0  0  0  0  0  0  0  0  0
   -2.0221    0.1384    6.4680 O   0  0  0  0  0  0  0  0  0  0  0  0
    0.4388   -1.2338    5.5469 C   0  0  0  0  0  0  0  0  0  0  0  0
   -0.1914   -2.4254    5.6062 C   0  0  0  0  0  0  0  0  0  0  0  0
    0.7652   -3.6100    5.8363 C   0  0  1  0  0  0  0  0  0  0  0  0
    0.1496   -4.6278    6.8200 C   0  0  0  0  0  0  0  0  0  0  0  0
   -0.1837   -5.8998    6.4865 C   0  0  0  0  0  0  0  0  0  0  0  0
    0.0385   -6.4217    5.1285 C   0  0  0  0  0  0  0  0  0  0  0  0
   -0.4058   -7.6460    4.5686 C   0  0  0  0  0  0  0  0  0  0  0  0
   -0.1109   -7.9799    3.2146 C   0  0  0  0  0  0  0  0  0  0  0  0
    0.6335   -7.1066    2.3767 C   0  0  0  0  0  0  0  0  0  0  0  0
    0.8728   -7.4467    1.0796 O   0  0  0  0  0  0  0  0  0  0  0  0
    1.0940   -5.8796    2.9074 C   0  0  0  0  0  0  0  0  0  0  0  0
    0.7541   -5.6472    4.2201 C   0  0  0  0  0  0  0  0  0  0  0  0
    1.3444   -4.3426    4.5759 C   0  0  1  0  0  0  0  0  0  0  0  0
    1.5798   -3.6884    3.2016 C   0  0  2  0  0  0  0  0  0  0  0  0
    1.8059   -4.8401    2.3477 O   0  0  0  0  0  0  0  0  0  0  0  0
    2.6989   -2.5844    3.2184 C   0  0  1  0  0  0  0  0  0  0  0  0
    2.9217   -2.1619    1.8817 O   0  0  0  0  0  0  0  0  0  0  0  0
    2.1675   -1.3734    4.0452 C   0  0  1  0  0  0  0  0  0  0  0  0
    1.8972   -1.4898    5.5778 C   0  0  2  0  0  0  0  0  0  0  0  0
    1.9810   -2.8249    6.3528 C   0  0  0  0  0  0  0  0  0  0  0  0
    2.7230    2.6952    4.7408 H   0  0  0  0  0  0  0  0  0  0  0  0
    3.2883    2.5505    3.0722 H   0  0  0  0  0  0  0  0  0  0  0  0
    4.4276    2.6367    4.4234 H   0  0  0  0  0  0  0  0  0  0  0  0
    4.7571   -0.8108    3.7100 H   0  0  0  0  0  0  0  0  0  0  0  0
    5.5235    0.7457    3.9198 H   0  0  0  0  0  0  0  0  0  0  0  0
    4.5826    0.4315    2.4671 H   0  0  0  0  0  0  0  0  0  0  0  0
    2.2187    0.2546    2.6128 H   0  0  0  0  0  0  0  0  0  0  0  0
   -1.1832    1.9236    4.0901 H   0  0  0  0  0  0  0  0  0  0  0  0
   -2.6975    2.0144    5.0159 H   0  0  0  0  0  0  0  0  0  0  0  0
   -1.2470   -2.5753    5.4632 H   0  0  0  0  0  0  0  0  0  0  0  0
    0.0172   -4.2979    7.8407 H   0  0  0  0  0  0  0  0  0  0  0  0
   -0.5868   -6.5800    7.2244 H   0  0  0  0  0  0  0  0  0  0  0  0
   -0.9693   -8.3438    5.1759 H   0  0  0  0  0  0  0  0  0  0  0  0
   -0.4486   -8.9348    2.8374 H   0  0  0  0  0  0  0  0  0  0  0  0
    0.6125   -8.3339    0.8504 H   0  0  0  0  0  0  0  0  0  0  0  0
    2.3264   -4.7108    4.8752 H   0  0  0  0  0  0  0  0  0  0  0  0
    0.6196   -3.2835    2.8816 H   0  0  0  0  0  0  0  0  0  0  0  0
    3.6378   -2.9581    3.6276 H   0  0  0  0  0  0  0  0  0  0  0  0
    2.1259   -1.7987    1.5157 H   0  0  0  0  0  0  0  0  0  0  0  0
    1.2197   -1.4498    3.5097 H   0  0  0  0  0  0  0  0  0  0  0  0
    2.4200   -0.7135    6.1373 H   0  0  0  0  0  0  0  0  0  0  0  0
    1.8084   -2.5955    7.4034 H   0  0  0  0  0  0  0  0  0  0  0  0
    2.9584   -3.3140    6.3188 H   0  0  0  0  0  0  0  0  0  0  0  0
  1  2  1  0
  1 31  1  0
  1 32  1  0
  1 33  1  0
  2  3  1  0
  2  4  1  0
  3 34  1  0
  3 35  1  0
  3 36  1  0
  4 28  1  0
  4  5  1  0
  4 37  1  6
  5  6  1  0
  5  7  2  0
  7  8  1  0
  7 11  1  0
  8  9  1  0
  8 10  2  0
  9 38  1  0
  9 39  1  0
 11 29  1  0
 11 12  2  0
 13 12  1  6
 12 40  1  0
 13 23  1  0
 13 30  1  0
 13 14  1  0
 14 15  2  0
 14 41  1  0
 15 16  1  0
 15 42  1  0
 16 22  2  0
 16 17  1  0
 17 18  2  0
 17 43  1  0
 18 19  1  0
 18 44  1  0
 19 20  1  0
 19 21  2  0
 20 45  1  0
 21 25  1  0
 21 22  1  0
 22 23  1  0
 23 24  1  0
 23 46  1  1
 24 25  1  0
 24 26  1  0
 24 47  1  6
 26 27  1  0
 26 28  1  0
 26 48  1  1
 27 49  1  0
 28 29  1  0
 28 50  1  6
 29 30  1  0
 29 51  1  1
 30 52  1  0
 30 53  1  0
M  CHG  1   6  -1
M  END
>  <i_m_ct_stereo_status>  (195) 
1

>  <s_m_source_file>  (195) 
/var/tmp/pbs.5076255.sched01/tmp9n4xeji_/82rcfztp6i.sdf

>  <i_m_source_file_index>  (195) 
3

>  <i_lp_mmshare_version>  (195) 
48012

>  <i_f3d_flags>  (195) 
0

>  <s_epik_input>  (195) 
W0NIM11OKFtDSDNdKVtDQEBIXTFDKD1PKVtDQEBIXShDKD1PKVtOSDJdKUMoPVtDSF0yKVtDQEhdKFtDSDJdMylbQ0BASF0xW0NASF0oW09IXSlbQ0BIXTRPYzVjKFtPSF0pW2NIXVtjSF1jKFtDSF09W0NIXTYpYzVbQ0BASF00W0NAXTIzNg==

>  <s_epik_cmdline>  (195) 
J2VwaWtfcHl0aG9uJywgJy1waHQnLCAnMi4wJywgJy1waCcsICc3LjAnLCAnLXRuJywgJzgnLCAnLW1hJywgJzIwMCcsICctaW1hZScsICc8aW5maWxlLm1hZT4nLCAnLW9tYWUnLCAnPG91dGZpbGUubWFlPic=

>  <r_epik_Ionization_Penalty>  (195) 
3.07989

>  <r_epik_Ionization_Penalty_Charging>  (195) 
0.0210457

>  <r_epik_Ionization_Penalty_Neutral>  (195) 
3.05885

>  <r_epik_State_Penalty>  (195) 
2.64942

>  <r_epik_Charging_Adjusted_Penalty>  (195) 
2.67046

>  <i_epik_Tot_Q>  (195) 
-1

>  <i_epik_Tot_abs_Q>  (195) 
1

>  <s_lp_Force_Field>  (195) 
OPLS3e

>  <r_lp_Energy>  (195) 
96.9321

>  <b_lp_Chiralities_Consistent>  (195) 
1

>  <s_lp_Variant>  (195) 
58:0-4

>  <s_i_glide_gridfile>  (195) 
pfpi4k_grid

>  <i_i_glide_lignum>  (195) 
3

>  <i_i_glide_rotatable_bonds>  (195) 
4

>  <r_i_docking_score>  (195) 
-3.87408

>  <r_i_glide_ligand_efficiency>  (195) 
-0.129136

>  <r_i_glide_ligand_efficiency_sa>  (195) 
-0.401256

>  <r_i_glide_ligand_efficiency_ln>  (195) 
-0.880234

>  <r_i_glide_gscore>  (195) 
-3.87408

>  <r_i_glide_lipo>  (195) 
-0.045107

>  <r_i_glide_hbond>  (195) 
-0.16

>  <r_i_glide_metal>  (195) 
-0

>  <r_i_glide_rewards>  (195) 
-1.1311

>  <r_i_glide_evdw>  (195) 
-21.4665

>  <r_i_glide_ecoul>  (195) 
-9.34408

>  <r_i_glide_erotb>  (195) 
0

>  <r_i_glide_esite>  (195) 
-0.062943

>  <r_i_glide_emodel>  (195) 
-43.546

>  <r_i_glide_energy>  (195) 
-30.8106

>  <r_i_glide_einternal>  (195) 
1.9943

>  <r_i_glide_intrahb_reward>  (195) 
-0.5

>  <i_i_glide_confnum>  (195) 
2

>  <i_i_glide_posenum>  (195) 
24

>  <r_i_glide_eff_state_penalty>  (195) 
0

>  <ligand_id>  (195) 
58

>  <original_smiles>  (195) 
CN(C)C1C(=O)C(C(N)=O)C2=CC34C=Cc5ccc(O)c6c5C3C(O6)C(O)C1C2C4

>  <smiles>  (195) 
[H]Oc1c([H])c([H])c2c3c1OC1([H])C([H])(O[H])C4([H])C([H])(N(C([H])([H])[H])C([H])([H])[H])C([O-])=C(C(=O)N([H])[H])C5=C([H])C(C([H])=C2[H])(C([H])([H])C54[H])C31[H]

$$$$
58:3:1
     RDKit          3D

 53 58  0  0  1  0  0  0  0  0999 V2000
    5.1551   -1.1927   -1.5232 C   0  0  0  0  0  0  0  0  0  0  0  0
    4.9769   -2.5032   -0.8997 N   0  0  0  0  0  0  0  0  0  0  0  0
    4.7717   -3.4680   -1.9750 C   0  0  0  0  0  0  0  0  0  0  0  0
    3.8715   -2.5397    0.0967 C   0  0  2  0  0  0  0  0  0  0  0  0
    4.0197   -1.5158    1.3217 C   0  0  0  0  0  0  0  0  0  0  0  0
    3.7689   -0.3570    0.9103 O   0  0  0  0  0  0  0  0  0  0  0  0
    4.2388   -1.9814    2.6532 C   0  0  0  0  0  0  0  0  0  0  0  0
    4.3155   -1.1186    3.8401 C   0  0  0  0  0  0  0  0  0  0  0  0
    3.8104    0.0940    3.6549 N   0  0  0  0  0  0  0  0  0  0  0  0
    4.7828   -1.4373    4.9291 O   0  0  0  0  0  0  0  0  0  0  0  0
    4.4367   -3.4281    2.8010 C   0  0  0  0  0  0  0  0  0  0  0  0
    3.9031   -4.2913    3.6927 C   0  0  0  0  0  0  0  0  0  0  0  0
    4.1023   -5.7693    3.2984 C   0  0  1  0  0  0  0  0  0  0  0  0
    4.4348   -6.6316    4.5349 C   0  0  0  0  0  0  0  0  0  0  0  0
    3.6368   -7.6186    5.0145 C   0  0  0  0  0  0  0  0  0  0  0  0
    2.3748   -7.9634    4.3509 C   0  0  0  0  0  0  0  0  0  0  0  0
    1.3534   -8.8340    4.8088 C   0  0  0  0  0  0  0  0  0  0  0  0
    0.1712   -9.0390    4.0445 C   0  0  0  0  0  0  0  0  0  0  0  0
   -0.0275   -8.3925    2.7961 C   0  0  0  0  0  0  0  0  0  0  0  0
   -1.1556   -8.6320    2.0789 O   0  0  0  0  0  0  0  0  0  0  0  0
    0.9617   -7.5079    2.3187 C   0  0  0  0  0  0  0  0  0  0  0  0
    2.0649   -7.3746    3.1283 C   0  0  0  0  0  0  0  0  0  0  0  0
    2.9880   -6.4607    2.4299 C   0  0  1  0  0  0  0  0  0  0  0  0
    2.0466   -5.7344    1.4435 C   0  0  2  0  0  0  0  0  0  0  0  0
    1.0195   -6.7278    1.1874 O   0  0  0  0  0  0  0  0  0  0  0  0
    2.8084   -5.1491    0.2001 C   0  0  1  0  0  0  0  0  0  0  0  0
    1.8322   -4.6537   -0.7041 O   0  0  0  0  0  0  0  0  0  0  0  0
    3.7022   -3.9663    0.6976 C   0  0  1  0  0  0  0  0  0  0  0  0
    4.9214   -4.2086    1.6450 C   0  0  2  0  0  0  0  0  0  0  0  0
    5.2401   -5.5796    2.2815 C   0  0  0  0  0  0  0  0  0  0  0  0
    5.5127   -0.4527   -0.8076 H   0  0  0  0  0  0  0  0  0  0  0  0
    4.2259   -0.8258   -1.9648 H   0  0  0  0  0  0  0  0  0  0  0  0
    5.9047   -1.2431   -2.3102 H   0  0  0  0  0  0  0  0  0  0  0  0
    4.7744   -4.4879   -1.5971 H   0  0  0  0  0  0  0  0  0  0  0  0
    5.5827   -3.4092   -2.6989 H   0  0  0  0  0  0  0  0  0  0  0  0
    3.8326   -3.2925   -2.4996 H   0  0  0  0  0  0  0  0  0  0  0  0
    2.9490   -2.2855   -0.4350 H   0  0  0  0  0  0  0  0  0  0  0  0
    3.4982    0.3002    2.7060 H   0  0  0  0  0  0  0  0  0  0  0  0
    3.8013    0.7921    4.3836 H   0  0  0  0  0  0  0  0  0  0  0  0
    3.3404   -4.0147    4.5692 H   0  0  0  0  0  0  0  0  0  0  0  0
    5.3759   -6.4257    5.0257 H   0  0  0  0  0  0  0  0  0  0  0  0
    3.9270   -8.1988    5.8766 H   0  0  0  0  0  0  0  0  0  0  0  0
    1.4728   -9.3545    5.7488 H   0  0  0  0  0  0  0  0  0  0  0  0
   -0.5706   -9.7292    4.4145 H   0  0  0  0  0  0  0  0  0  0  0  0
   -0.9458   -8.7866    1.1622 H   0  0  0  0  0  0  0  0  0  0  0  0
    3.5052   -7.2118    1.8260 H   0  0  0  0  0  0  0  0  0  0  0  0
    1.5217   -4.9538    1.9972 H   0  0  0  0  0  0  0  0  0  0  0  0
    3.4081   -5.9040   -0.3108 H   0  0  0  0  0  0  0  0  0  0  0  0
    2.1489   -4.8083   -1.5884 H   0  0  0  0  0  0  0  0  0  0  0  0
    2.8561   -3.5986    1.2805 H   0  0  0  0  0  0  0  0  0  0  0  0
    5.8395   -3.7811    1.2399 H   0  0  0  0  0  0  0  0  0  0  0  0
    6.1703   -5.4714    2.8391 H   0  0  0  0  0  0  0  0  0  0  0  0
    5.4235   -6.3860    1.5691 H   0  0  0  0  0  0  0  0  0  0  0  0
  1  2  1  0
  1 31  1  0
  1 32  1  0
  1 33  1  0
  2  3  1  0
  2  4  1  0
  3 34  1  0
  3 35  1  0
  3 36  1  0
  4 28  1  0
  4  5  1  0
  4 37  1  6
  5  6  1  0
  5  7  2  0
  7  8  1  0
  7 11  1  0
  8  9  1  0
  8 10  2  0
  9 38  1  0
  9 39  1  0
 11 29  1  0
 11 12  2  0
 13 12  1  1
 12 40  1  0
 13 23  1  0
 13 30  1  0
 13 14  1  0
 14 15  2  0
 14 41  1  0
 15 16  1  0
 15 42  1  0
 16 22  2  0
 16 17  1  0
 17 18  2  0
 17 43  1  0
 18 19  1  0
 18 44  1  0
 19 20  1  0
 19 21  2  0
 20 45  1  0
 21 25  1  0
 21 22  1  0
 22 23  1  0
 23 24  1  0
 23 46  1  6
 24 25  1  0
 24 26  1  0
 24 47  1  1
 26 27  1  0
 26 28  1  0
 26 48  1  6
 27 49  1  0
 28 29  1  0
 28 50  1  1
 29 30  1  0
 29 51  1  6
 30 52  1  0
 30 53  1  0
M  CHG  1   6  -1
M  END
>  <i_m_ct_stereo_status>  (196) 
1

>  <s_m_source_file>  (196) 
/var/tmp/pbs.5076255.sched01/tmp9n4xeji_/82rcfztp6i.sdf

>  <i_m_source_file_index>  (196) 
3

>  <i_lp_mmshare_version>  (196) 
48012

>  <i_f3d_flags>  (196) 
0

>  <s_epik_input>  (196) 
W0NIM11OKFtDSDNdKVtDQEBIXTFDKD1PKVtDQEBIXShDKD1PKVtOSDJdKUMoPVtDSF0yKVtDQEhdKFtDSDJdMylbQ0BASF0xW0NASF0oW09IXSlbQ0BIXTRPYzVjKFtPSF0pW2NIXVtjSF1jKFtDSF09W0NIXTYpYzVbQ0BASF00W0NAXTIzNg==

>  <s_epik_cmdline>  (196) 
J2VwaWtfcHl0aG9uJywgJy1waHQnLCAnMi4wJywgJy1waCcsICc3LjAnLCAnLXRuJywgJzgnLCAnLW1hJywgJzIwMCcsICctaW1hZScsICc8aW5maWxlLm1hZT4nLCAnLW9tYWUnLCAnPG91dGZpbGUubWFlPic=

>  <r_epik_Ionization_Penalty>  (196) 
3.07989

>  <r_epik_Ionization_Penalty_Charging>  (196) 
0.0210457

>  <r_epik_Ionization_Penalty_Neutral>  (196) 
3.05885

>  <r_epik_State_Penalty>  (196) 
2.64942

>  <r_epik_Charging_Adjusted_Penalty>  (196) 
2.67046

>  <i_epik_Tot_Q>  (196) 
-1

>  <i_epik_Tot_abs_Q>  (196) 
1

>  <s_lp_Force_Field>  (196) 
OPLS3e

>  <r_lp_Energy>  (196) 
96.9321

>  <b_lp_Chiralities_Consistent>  (196) 
1

>  <s_lp_Variant>  (196) 
58:0-4

>  <s_i_glide_gridfile>  (196) 
pfpi4k_grid

>  <i_i_glide_lignum>  (196) 
3

>  <i_i_glide_rotatable_bonds>  (196) 
4

>  <r_i_docking_score>  (196) 
-3.82319

>  <r_i_glide_ligand_efficiency>  (196) 
-0.12744

>  <r_i_glide_ligand_efficiency_sa>  (196) 
-0.395985

>  <r_i_glide_ligand_efficiency_ln>  (196) 
-0.86867

>  <r_i_glide_gscore>  (196) 
-3.82319

>  <r_i_glide_lipo>  (196) 
-0.0983433

>  <r_i_glide_hbond>  (196) 
-0.014618

>  <r_i_glide_metal>  (196) 
-0

>  <r_i_glide_rewards>  (196) 
-1.15905

>  <r_i_glide_evdw>  (196) 
-23.9267

>  <r_i_glide_ecoul>  (196) 
-9.03037

>  <r_i_glide_erotb>  (196) 
0

>  <r_i_glide_esite>  (196) 
-0.000283637

>  <r_i_glide_emodel>  (196) 
-43.0622

>  <r_i_glide_energy>  (196) 
-32.9571

>  <r_i_glide_einternal>  (196) 
5.1175

>  <r_i_glide_intrahb_reward>  (196) 
-0.5

>  <i_i_glide_confnum>  (196) 
1

>  <i_i_glide_posenum>  (196) 
1

>  <r_i_glide_eff_state_penalty>  (196) 
0

>  <ligand_id>  (196) 
58

>  <original_smiles>  (196) 
CN(C)C1C(=O)C(C(N)=O)C2=CC34C=Cc5ccc(O)c6c5C3C(O6)C(O)C1C2C4

>  <smiles>  (196) 
[H]Oc1c([H])c([H])c2c3c1OC1([H])C([H])(O[H])C4([H])C([H])(N(C([H])([H])[H])C([H])([H])[H])C([O-])=C(C(=O)N([H])[H])C5=C([H])C(C([H])=C2[H])(C([H])([H])C54[H])C31[H]

$$$$
58:3:2
     RDKit          3D

 53 58  0  0  1  0  0  0  0  0999 V2000
    3.9388    0.2023    5.5314 C   0  0  0  0  0  0  0  0  0  0  0  0
    3.9847   -1.2594    5.5910 N   0  0  0  0  0  0  0  0  0  0  0  0
    5.3589   -1.6581    5.3101 C   0  0  0  0  0  0  0  0  0  0  0  0
    3.0215   -1.9400    4.6819 C   0  0  2  0  0  0  0  0  0  0  0  0
    1.5003   -1.4430    4.7711 C   0  0  0  0  0  0  0  0  0  0  0  0
    1.4266   -0.3308    4.1800 O   0  0  0  0  0  0  0  0  0  0  0  0
    0.4709   -2.2790    5.2862 C   0  0  0  0  0  0  0  0  0  0  0  0
   -0.9505   -1.9125    5.3488 C   0  0  0  0  0  0  0  0  0  0  0  0
   -1.2920   -0.9338    4.5176 N   0  0  0  0  0  0  0  0  0  0  0  0
   -1.7947   -2.4301    6.0796 O   0  0  0  0  0  0  0  0  0  0  0  0
    0.9137   -3.5758    5.8225 C   0  0  0  0  0  0  0  0  0  0  0  0
    0.4097   -4.8150    5.6242 C   0  0  0  0  0  0  0  0  0  0  0  0
    1.3609   -5.9432    6.0778 C   0  0  1  0  0  0  0  0  0  0  0  0
    0.5821   -7.0820    6.7714 C   0  0  0  0  0  0  0  0  0  0  0  0
    0.4795   -8.3460    6.2852 C   0  0  0  0  0  0  0  0  0  0  0  0
    1.1517   -8.7377    5.0407 C   0  0  0  0  0  0  0  0  0  0  0  0
    1.0190   -9.9452    4.3105 C   0  0  0  0  0  0  0  0  0  0  0  0
    1.7436  -10.1566    3.1022 C   0  0  0  0  0  0  0  0  0  0  0  0
    2.6282   -9.1758    2.5768 C   0  0  0  0  0  0  0  0  0  0  0  0
    3.3213   -9.4275    1.4273 O   0  0  0  0  0  0  0  0  0  0  0  0
    2.7623   -7.9466    3.2679 C   0  0  0  0  0  0  0  0  0  0  0  0
    2.0263   -7.8434    4.4270 C   0  0  0  0  0  0  0  0  0  0  0  0
    2.3608   -6.5306    5.0178 C   0  0  1  0  0  0  0  0  0  0  0  0
    2.9382   -5.7567    3.8128 C   0  0  2  0  0  0  0  0  0  0  0  0
    3.5069   -6.8196    3.0055 O   0  0  0  0  0  0  0  0  0  0  0  0
    3.8946   -4.5832    4.2434 C   0  0  1  0  0  0  0  0  0  0  0  0
    4.4740   -4.0384    3.0683 O   0  0  0  0  0  0  0  0  0  0  0  0
    3.0252   -3.4774    4.9225 C   0  0  1  0  0  0  0  0  0  0  0  0
    2.3104   -3.7274    6.2877 C   0  0  2  0  0  0  0  0  0  0  0  0
    2.2831   -5.1087    6.9821 C   0  0  0  0  0  0  0  0  0  0  0  0
    2.9923    0.5802    5.9175 H   0  0  0  0  0  0  0  0  0  0  0  0
    4.0612    0.5630    4.5075 H   0  0  0  0  0  0  0  0  0  0  0  0
    4.7193    0.6517    6.1467 H   0  0  0  0  0  0  0  0  0  0  0  0
    5.5103   -2.7221    5.4780 H   0  0  0  0  0  0  0  0  0  0  0  0
    6.0462   -1.1353    5.9731 H   0  0  0  0  0  0  0  0  0  0  0  0
    5.6429   -1.4253    4.2836 H   0  0  0  0  0  0  0  0  0  0  0  0
    3.3610   -1.7489    3.6589 H   0  0  0  0  0  0  0  0  0  0  0  0
   -0.5142   -0.5195    4.0082 H   0  0  0  0  0  0  0  0  0  0  0  0
   -2.2314   -0.5682    4.4560 H   0  0  0  0  0  0  0  0  0  0  0  0
   -0.5320   -5.0359    5.1537 H   0  0  0  0  0  0  0  0  0  0  0  0
    0.1057   -6.8331    7.7080 H   0  0  0  0  0  0  0  0  0  0  0  0
   -0.0705   -9.1095    6.8143 H   0  0  0  0  0  0  0  0  0  0  0  0
    0.3543  -10.7163    4.6831 H   0  0  0  0  0  0  0  0  0  0  0  0
    1.6249  -11.0990    2.5931 H   0  0  0  0  0  0  0  0  0  0  0  0
    3.3833  -10.3467    1.1884 H   0  0  0  0  0  0  0  0  0  0  0  0
    3.2361   -6.8495    5.5893 H   0  0  0  0  0  0  0  0  0  0  0  0
    2.1002   -5.3980    3.2134 H   0  0  0  0  0  0  0  0  0  0  0  0
    4.6935   -4.9157    4.9051 H   0  0  0  0  0  0  0  0  0  0  0  0
    3.7881   -3.8046    2.4647 H   0  0  0  0  0  0  0  0  0  0  0  0
    2.2972   -3.5838    4.1173 H   0  0  0  0  0  0  0  0  0  0  0  0
    2.5664   -2.9610    7.0203 H   0  0  0  0  0  0  0  0  0  0  0  0
    1.7776   -4.9762    7.9379 H   0  0  0  0  0  0  0  0  0  0  0  0
    3.2647   -5.5219    7.2283 H   0  0  0  0  0  0  0  0  0  0  0  0
  1  2  1  0
  1 31  1  0
  1 32  1  0
  1 33  1  0
  2  3  1  0
  2  4  1  0
  3 34  1  0
  3 35  1  0
  3 36  1  0
  4 28  1  0
  4  5  1  0
  4 37  1  6
  5  6  1  0
  5  7  2  0
  7  8  1  0
  7 11  1  0
  8  9  1  0
  8 10  2  0
  9 38  1  0
  9 39  1  0
 11 29  1  0
 11 12  2  0
 13 12  1  6
 12 40  1  0
 13 23  1  0
 13 30  1  0
 13 14  1  0
 14 15  2  0
 14 41  1  0
 15 16  1  0
 15 42  1  0
 16 22  2  0
 16 17  1  0
 17 18  2  0
 17 43  1  0
 18 19  1  0
 18 44  1  0
 19 20  1  0
 19 21  2  0
 20 45  1  0
 21 25  1  0
 21 22  1  0
 22 23  1  0
 23 24  1  0
 23 46  1  1
 24 25  1  0
 24 26  1  0
 24 47  1  6
 26 27  1  0
 26 28  1  0
 26 48  1  1
 27 49  1  0
 28 29  1  0
 28 50  1  6
 29 30  1  0
 29 51  1  1
 30 52  1  0
 30 53  1  0
M  CHG  1   6  -1
M  END
>  <i_m_ct_stereo_status>  (197) 
1

>  <s_m_source_file>  (197) 
/var/tmp/pbs.5076255.sched01/tmp9n4xeji_/82rcfztp6i.sdf

>  <i_m_source_file_index>  (197) 
3

>  <i_lp_mmshare_version>  (197) 
48012

>  <i_f3d_flags>  (197) 
0

>  <s_epik_input>  (197) 
W0NIM11OKFtDSDNdKVtDQEBIXTFDKD1PKVtDQEBIXShDKD1PKVtOSDJdKUMoPVtDSF0yKVtDQEhdKFtDSDJdMylbQ0BASF0xW0NASF0oW09IXSlbQ0BIXTRPYzVjKFtPSF0pW2NIXVtjSF1jKFtDSF09W0NIXTYpYzVbQ0BASF00W0NAXTIzNg==

>  <s_epik_cmdline>  (197) 
J2VwaWtfcHl0aG9uJywgJy1waHQnLCAnMi4wJywgJy1waCcsICc3LjAnLCAnLXRuJywgJzgnLCAnLW1hJywgJzIwMCcsICctaW1hZScsICc8aW5maWxlLm1hZT4nLCAnLW9tYWUnLCAnPG91dGZpbGUubWFlPic=

>  <r_epik_Ionization_Penalty>  (197) 
3.07989

>  <r_epik_Ionization_Penalty_Charging>  (197) 
0.0210457

>  <r_epik_Ionization_Penalty_Neutral>  (197) 
3.05885

>  <r_epik_State_Penalty>  (197) 
2.64942

>  <r_epik_Charging_Adjusted_Penalty>  (197) 
2.67046

>  <i_epik_Tot_Q>  (197) 
-1

>  <i_epik_Tot_abs_Q>  (197) 
1

>  <s_lp_Force_Field>  (197) 
OPLS3e

>  <r_lp_Energy>  (197) 
96.9321

>  <b_lp_Chiralities_Consistent>  (197) 
1

>  <s_lp_Variant>  (197) 
58:0-4

>  <s_i_glide_gridfile>  (197) 
pfpi4k_grid

>  <i_i_glide_lignum>  (197) 
3

>  <i_i_glide_rotatable_bonds>  (197) 
4

>  <r_i_docking_score>  (197) 
-2.92393

>  <r_i_glide_ligand_efficiency>  (197) 
-0.0974643

>  <r_i_glide_ligand_efficiency_sa>  (197) 
-0.302844

>  <r_i_glide_ligand_efficiency_ln>  (197) 
-0.664349

>  <r_i_glide_gscore>  (197) 
-2.92393

>  <r_i_glide_lipo>  (197) 
-0.0988643

>  <r_i_glide_hbond>  (197) 
0

>  <r_i_glide_metal>  (197) 
-0

>  <r_i_glide_rewards>  (197) 
-1.1311

>  <r_i_glide_evdw>  (197) 
-19.2329

>  <r_i_glide_ecoul>  (197) 
-4.42559

>  <r_i_glide_erotb>  (197) 
0

>  <r_i_glide_esite>  (197) 
-0.0684841

>  <r_i_glide_emodel>  (197) 
-33.9983

>  <r_i_glide_energy>  (197) 
-23.6585

>  <r_i_glide_einternal>  (197) 
2.17949

>  <r_i_glide_intrahb_reward>  (197) 
-0.5

>  <i_i_glide_confnum>  (197) 
2

>  <i_i_glide_posenum>  (197) 
8

>  <r_i_glide_eff_state_penalty>  (197) 
0

>  <ligand_id>  (197) 
58

>  <original_smiles>  (197) 
CN(C)C1C(=O)C(C(N)=O)C2=CC34C=Cc5ccc(O)c6c5C3C(O6)C(O)C1C2C4

>  <smiles>  (197) 
[H]Oc1c([H])c([H])c2c3c1OC1([H])C([H])(O[H])C4([H])C([H])(N(C([H])([H])[H])C([H])([H])[H])C([O-])=C(C(=O)N([H])[H])C5=C([H])C(C([H])=C2[H])(C([H])([H])C54[H])C31[H]

$$$$
59:0:0
     RDKit          3D

 70 77  0  0  1  0  0  0  0  0999 V2000
    9.0740   -5.9701    2.5120 C   0  0  0  0  0  0  0  0  0  0  0  0
    7.9506   -6.0626    3.3758 O   0  0  0  0  0  0  0  0  0  0  0  0
    6.7581   -5.5941    2.8195 C   0  0  2  0  0  0  0  0  0  0  0  0
    5.6951   -5.4014    3.7485 O   0  0  0  0  0  0  0  0  0  0  0  0
    4.5268   -6.0559    3.1850 C   0  0  2  0  0  0  0  0  0  0  0  0
    3.4092   -6.5919    4.0982 C   0  0  1  0  0  0  0  0  0  0  0  0
    2.3958   -5.6477    4.3763 O   0  0  0  0  0  0  0  0  0  0  0  0
    2.9286   -7.9483    3.4459 C   0  0  2  0  0  0  0  0  0  0  0  0
    1.7938   -7.7053    2.6341 O   0  0  0  0  0  0  0  0  0  0  0  0
    2.4155   -8.9228    4.5046 C   0  0  0  0  0  0  0  0  0  0  0  0
    2.5591  -10.2580    4.4204 C   0  0  0  0  0  0  0  0  0  0  0  0
    3.3324  -10.9018    3.2939 C   0  0  0  0  0  0  0  0  0  0  0  0
    4.5421  -10.0139    2.9711 C   0  0  1  0  0  0  0  0  0  0  0  0
    5.4137  -10.6642    2.0444 O   0  0  0  0  0  0  0  0  0  0  0  0
    4.1518   -8.5138    2.5645 C   0  0  1  0  0  0  0  0  0  0  0  0
    3.8486   -8.7089    1.0474 C   0  0  0  0  0  0  0  0  0  0  0  0
    5.2542   -7.3907    2.8848 C   0  0  2  0  0  0  0  0  0  0  0  0
    6.0654   -7.9484    4.1404 C   0  0  0  0  0  0  0  0  0  0  0  0
    6.1329   -6.6234    1.8472 C   0  0  1  0  0  0  0  0  0  0  0  0
    5.1920   -5.7723    0.9245 C   0  0  2  0  0  0  0  0  0  0  0  0
    5.7362   -4.6112    0.0625 C   0  0  1  0  0  0  0  0  0  0  0  0
    4.9666   -4.6384   -1.1570 O   0  0  0  0  0  0  0  0  0  0  0  0
    5.3409   -3.7157   -2.1371 C   0  0  1  0  0  0  0  0  0  0  0  0
    4.6048   -3.8797   -3.3104 O   0  0  0  0  0  0  0  0  0  0  0  0
    5.1220   -2.3286   -1.5977 C   0  0  2  0  0  0  0  0  0  0  0  0
    6.2831   -1.7738   -0.9996 O   0  0  0  0  0  0  0  0  0  0  0  0
    5.2050   -2.0954   -0.1145 C   0  0  2  0  0  0  0  0  0  0  0  0
    5.4912   -3.2783    0.8272 C   0  0  1  0  0  0  0  0  0  0  0  0
    4.4772   -3.6200    1.9905 C   0  0  1  0  0  0  0  0  0  0  0  0
    3.3341   -2.6168    2.2809 C   0  0  0  0  0  0  0  0  0  0  0  0
    3.4294   -1.1863    2.2944 C   0  0  0  0  0  0  0  0  0  0  0  0
    2.1871   -0.6833    2.5594 C   0  0  0  0  0  0  0  0  0  0  0  0
    1.3255   -1.6994    2.8317 O   0  0  0  0  0  0  0  0  0  0  0  0
    2.0403   -2.8449    2.6975 C   0  0  0  0  0  0  0  0  0  0  0  0
    4.1363   -5.1840    1.8789 C   0  0  2  0  0  0  0  0  0  0  0  0
    2.7146   -5.2994    1.2399 C   0  0  0  0  0  0  0  0  0  0  0  0
    9.9593   -6.3563    3.0276 H   0  0  0  0  0  0  0  0  0  0  0  0
    9.2776   -4.9408    2.2226 H   0  0  0  0  0  0  0  0  0  0  0  0
    8.9427   -6.5613    1.6046 H   0  0  0  0  0  0  0  0  0  0  0  0
    7.0136   -4.6523    2.3618 H   0  0  0  0  0  0  0  0  0  0  0  0
    3.8450   -6.8096    5.0783 H   0  0  0  0  0  0  0  0  0  0  0  0
    2.8022   -4.9061    4.8021 H   0  0  0  0  0  0  0  0  0  0  0  0
    1.5077   -8.5347    2.2772 H   0  0  0  0  0  0  0  0  0  0  0  0
    1.8676   -8.4962    5.3346 H   0  0  0  0  0  0  0  0  0  0  0  0
    2.1381  -10.9107    5.1725 H   0  0  0  0  0  0  0  0  0  0  0  0
    3.6700  -11.8841    3.6231 H   0  0  0  0  0  0  0  0  0  0  0  0
    2.6779  -11.0610    2.4408 H   0  0  0  0  0  0  0  0  0  0  0  0
    5.0820  -10.0986    3.9017 H   0  0  0  0  0  0  0  0  0  0  0  0
    4.8865  -11.1780    1.4262 H   0  0  0  0  0  0  0  0  0  0  0  0
    4.7651   -8.7882    0.4637 H   0  0  0  0  0  0  0  0  0  0  0  0
    3.3059   -7.9327    0.5787 H   0  0  0  0  0  0  0  0  0  0  0  0
    3.2490   -9.5942    0.8455 H   0  0  0  0  0  0  0  0  0  0  0  0
    6.7989   -8.6957    3.8337 H   0  0  0  0  0  0  0  0  0  0  0  0
    5.4122   -8.3795    4.8965 H   0  0  0  0  0  0  0  0  0  0  0  0
    6.6050   -7.2422    4.7611 H   0  0  0  0  0  0  0  0  0  0  0  0
    6.8682   -7.2353    1.3145 H   0  0  0  0  0  0  0  0  0  0  0  0
    4.7602   -6.4731    0.2193 H   0  0  0  0  0  0  0  0  0  0  0  0
    6.7908   -4.7700   -0.1915 H   0  0  0  0  0  0  0  0  0  0  0  0
    6.3962   -3.8601   -2.3919 H   0  0  0  0  0  0  0  0  0  0  0  0
    3.8958   -4.4786   -3.1157 H   0  0  0  0  0  0  0  0  0  0  0  0
    4.5107   -1.6388   -2.1744 H   0  0  0  0  0  0  0  0  0  0  0  0
    4.7338   -1.2016    0.2946 H   0  0  0  0  0  0  0  0  0  0  0  0
    6.4418   -2.9890    1.2848 H   0  0  0  0  0  0  0  0  0  0  0  0
    5.0677   -3.4265    2.8828 H   0  0  0  0  0  0  0  0  0  0  0  0
    4.3065   -0.5803    2.1051 H   0  0  0  0  0  0  0  0  0  0  0  0
    1.7702    0.3130    2.6360 H   0  0  0  0  0  0  0  0  0  0  0  0
    1.4653   -3.7187    2.9517 H   0  0  0  0  0  0  0  0  0  0  0  0
    2.6386   -4.6107    0.3969 H   0  0  0  0  0  0  0  0  0  0  0  0
    1.9306   -5.1448    1.9281 H   0  0  0  0  0  0  0  0  0  0  0  0
    2.4715   -6.2365    0.7524 H   0  0  0  0  0  0  0  0  0  0  0  0
  1  2  1  0
  1 37  1  0
  1 38  1  0
  1 39  1  0
  2  3  1  0
  3 19  1  0
  3  4  1  0
  3 40  1  6
  5  4  1  1
  5 17  1  0
  5 35  1  0
  5  6  1  0
  6  7  1  0
  6  8  1  0
  6 41  1  1
  7 42  1  0
  8 15  1  0
  8  9  1  6
  8 10  1  0
  9 43  1  0
 10 11  2  0
 10 44  1  0
 11 12  1  0
 11 45  1  0
 12 13  1  0
 12 46  1  0
 12 47  1  0
 13 14  1  0
 13 15  1  0
 13 48  1  1
 14 49  1  0
 15 16  1  6
 15 17  1  0
 16 50  1  0
 16 51  1  0
 16 52  1  0
 17 18  1  1
 17 19  1  0
 18 53  1  0
 18 54  1  0
 18 55  1  0
 19 20  1  0
 19 56  1  6
 20 35  1  0
 20 21  1  0
 20 57  1  6
 21 28  1  0
 21 22  1  0
 21 58  1  6
 22 23  1  0
 23 24  1  0
 23 25  1  0
 23 59  1  6
 24 60  1  0
 25 27  1  0
 25 26  1  0
 25 61  1  6
 26 27  1  0
 27 28  1  0
 27 62  1  1
 28 29  1  0
 28 63  1  1
 29 30  1  0
 29 35  1  0
 29 64  1  1
 30 34  2  0
 30 31  1  0
 31 32  2  0
 31 65  1  0
 32 33  1  0
 32 66  1  0
 33 34  1  0
 34 67  1  0
 35 36  1  6
 36 68  1  0
 36 69  1  0
 36 70  1  0
M  END
>  <i_m_ct_stereo_status>  (198) 
1

>  <s_m_source_file>  (198) 
/var/tmp/pbs.5076255.sched01/tmp9n4xeji_/82rcfztp6i.sdf

>  <i_m_source_file_index>  (198) 
4

>  <i_lp_mmshare_version>  (198) 
48012

>  <i_f3d_flags>  (198) 
2

>  <s_epik_input>  (198) 
W09IXVtDQEBIXTFbQ0gyXVtDSF09W0NIXVtDQEBdKFtPSF0pKFtDQEBIXTJbT0hdKVtDQEBdMShbQ0gzXSlbQ0BAXShbQ0BAXTIzNCkoW0NIM10pW0NASF0oW0NAQEhdKE8zKU9bQ0gzXSlbQ0BASF01W0NASF02W0NAQEhdKFtDQEBIXTdbQ0BIXShPNylbQ0BASF0oTzYpW09IXSlbQ0BIXShbQ0BAXTQ1W0NIM10pYzhbY0hdW2NIXW9bY0hdOA==

>  <s_epik_cmdline>  (198) 
J2VwaWtfcHl0aG9uJywgJy1waHQnLCAnMi4wJywgJy1waCcsICc3LjAnLCAnLXRuJywgJzgnLCAnLW1hJywgJzIwMCcsICctaW1hZScsICc8aW5maWxlLm1hZT4nLCAnLW9tYWUnLCAnPG91dGZpbGUubWFlPic=

>  <r_lp_tautomer_probability>  (198) 
1

>  <r_epik_Ionization_Penalty>  (198) 
5.23377e-07

>  <r_epik_Ionization_Penalty_Charging>  (198) 
0

>  <r_epik_Ionization_Penalty_Neutral>  (198) 
5.23377e-07

>  <r_epik_State_Penalty>  (198) 
-0

>  <r_epik_Charging_Adjusted_Penalty>  (198) 
0

>  <i_epik_Tot_Q>  (198) 
0

>  <i_epik_Tot_abs_Q>  (198) 
0

>  <s_epik_Chemistry_Notes>  (198) 
This compound contains an acetal/aminal-like group ( X-CH(R)-Y where X, Y are N, S, or O) that may be acid/base labile, releasing an aldehyde.

>  <s_lp_Force_Field>  (198) 
OPLS3e

>  <r_lp_Energy>  (198) 
133.96

>  <b_lp_Chiralities_Consistent>  (198) 
0

>  <s_lp_Variant>  (198) 
59:0-1

>  <s_i_glide_gridfile>  (198) 
pfpi4k_grid

>  <i_i_glide_lignum>  (198) 
4

>  <i_i_glide_rotatable_bonds>  (198) 
6

>  <r_i_docking_score>  (198) 
-3.35146

>  <r_i_glide_ligand_efficiency>  (198) 
-0.0930962

>  <r_i_glide_ligand_efficiency_sa>  (198) 
-0.307397

>  <r_i_glide_ligand_efficiency_ln>  (198) 
-0.731199

>  <r_i_glide_gscore>  (198) 
-3.35146

>  <r_i_glide_lipo>  (198) 
-0.306706

>  <r_i_glide_hbond>  (198) 
-0.289394

>  <r_i_glide_metal>  (198) 
-0

>  <r_i_glide_rewards>  (198) 
-0.125001

>  <r_i_glide_evdw>  (198) 
-24.8573

>  <r_i_glide_ecoul>  (198) 
-9.78937

>  <r_i_glide_erotb>  (198) 
0.0809074

>  <r_i_glide_esite>  (198) 
0

>  <r_i_glide_emodel>  (198) 
-35.6917

>  <r_i_glide_energy>  (198) 
-34.6467

>  <r_i_glide_einternal>  (198) 
10.6377

>  <r_i_glide_intrahb_reward>  (198) 
-0

>  <i_i_glide_confnum>  (198) 
3

>  <i_i_glide_posenum>  (198) 
40

>  <r_i_glide_eff_state_penalty>  (198) 
0

>  <ligand_id>  (198) 
59

>  <original_smiles>  (198) 
COC1OC23C(O)C4(O)C=CCC(O)C4(C)C2(C)C1C1C2OC(O)C4OC4C2C(c2ccoc2)C13C

>  <smiles>  (198) 
[H]OC1([H])OC2([H])C([H])(C3([H])OC13[H])C([H])(c1c([H])oc([H])c1[H])C1(C([H])([H])[H])C2([H])C2([H])C([H])(OC([H])([H])[H])OC13C([H])(O[H])C1(O[H])C([H])=C([H])C([H])([H])C([H])(O[H])C1(C([H])([H])[H])C23C([H])([H])[H]

$$$$
59:0:1
     RDKit          3D

 70 77  0  0  1  0  0  0  0  0999 V2000
    6.7195   -5.1319    6.6640 C   0  0  0  0  0  0  0  0  0  0  0  0
    6.5272   -5.7239    5.3877 O   0  0  0  0  0  0  0  0  0  0  0  0
    5.5260   -5.1182    4.6302 C   0  0  2  0  0  0  0  0  0  0  0  0
    4.2022   -5.2516    5.1429 O   0  0  0  0  0  0  0  0  0  0  0  0
    3.3809   -5.7211    4.0434 C   0  0  2  0  0  0  0  0  0  0  0  0
    2.0964   -6.5387    4.2954 C   0  0  1  0  0  0  0  0  0  0  0  0
    0.9294   -5.7526    4.4434 O   0  0  0  0  0  0  0  0  0  0  0  0
    2.0379   -7.6334    3.1575 C   0  0  2  0  0  0  0  0  0  0  0  0
    1.2063   -7.1849    2.1051 O   0  0  0  0  0  0  0  0  0  0  0  0
    1.3299   -8.8917    3.6461 C   0  0  0  0  0  0  0  0  0  0  0  0
    1.6675  -10.1280    3.2520 C   0  0  0  0  0  0  0  0  0  0  0  0
    2.8422  -10.3678    2.3399 C   0  0  0  0  0  0  0  0  0  0  0  0
    3.9695   -9.4090    2.7297 C   0  0  1  0  0  0  0  0  0  0  0  0
    5.1386   -9.7290    1.9887 O   0  0  0  0  0  0  0  0  0  0  0  0
    3.5458   -7.8616    2.6419 C   0  0  1  0  0  0  0  0  0  0  0  0
    3.7747   -7.5700    1.1239 C   0  0  0  0  0  0  0  0  0  0  0  0
    4.3328   -6.8776    3.6384 C   0  0  2  0  0  0  0  0  0  0  0  0
    4.7451   -7.7853    4.8811 C   0  0  0  0  0  0  0  0  0  0  0  0
    5.3983   -5.8071    3.2524 C   0  0  1  0  0  0  0  0  0  0  0  0
    4.7121   -4.7452    2.3274 C   0  0  2  0  0  0  0  0  0  0  0  0
    5.3551   -3.3693    2.0599 C   0  0  1  0  0  0  0  0  0  0  0  0
    5.0418   -3.0248    0.7023 O   0  0  0  0  0  0  0  0  0  0  0  0
    5.5899   -1.8262    0.2450 C   0  0  1  0  0  0  0  0  0  0  0  0
    5.3350   -1.6209   -1.1231 O   0  0  0  0  0  0  0  0  0  0  0  0
    5.0094   -0.6892    1.0568 C   0  0  2  0  0  0  0  0  0  0  0  0
    5.8077   -0.2989    2.1752 O   0  0  0  0  0  0  0  0  0  0  0  0
    4.5678   -0.9514    2.4731 C   0  0  2  0  0  0  0  0  0  0  0  0
    4.7234   -2.3484    3.0519 C   0  0  1  0  0  0  0  0  0  0  0  0
    3.4581   -3.0489    3.6454 C   0  0  1  0  0  0  0  0  0  0  0  0
    2.1703   -2.2256    3.7190 C   0  0  0  0  0  0  0  0  0  0  0  0
    1.3277   -2.1436    4.8679 C   0  0  0  0  0  0  0  0  0  0  0  0
    0.2977   -1.3071    4.5487 C   0  0  0  0  0  0  0  0  0  0  0  0
    0.4325   -0.8459    3.2816 O   0  0  0  0  0  0  0  0  0  0  0  0
    1.5556   -1.4269    2.7893 C   0  0  0  0  0  0  0  0  0  0  0  0
    3.3530   -4.4966    2.9945 C   0  0  2  0  0  0  0  0  0  0  0  0
    2.2240   -4.4056    1.9279 C   0  0  0  0  0  0  0  0  0  0  0  0
    7.4976   -5.6733    7.2017 H   0  0  0  0  0  0  0  0  0  0  0  0
    5.8107   -5.1718    7.2658 H   0  0  0  0  0  0  0  0  0  0  0  0
    7.0373   -4.0924    6.5767 H   0  0  0  0  0  0  0  0  0  0  0  0
    5.8310   -4.0848    4.5676 H   0  0  0  0  0  0  0  0  0  0  0  0
    2.2108   -7.0411    5.2575 H   0  0  0  0  0  0  0  0  0  0  0  0
    1.0827   -5.1579    5.1652 H   0  0  0  0  0  0  0  0  0  0  0  0
    1.0647   -7.9181    1.5201 H   0  0  0  0  0  0  0  0  0  0  0  0
    0.4878   -8.7565    4.3117 H   0  0  0  0  0  0  0  0  0  0  0  0
    1.1104  -10.9967    3.5786 H   0  0  0  0  0  0  0  0  0  0  0  0
    3.1641  -11.4017    2.4735 H   0  0  0  0  0  0  0  0  0  0  0  0
    2.5401  -10.2445    1.3000 H   0  0  0  0  0  0  0  0  0  0  0  0
    4.1894   -9.7871    3.7204 H   0  0  0  0  0  0  0  0  0  0  0  0
    4.9873  -10.5457    1.5221 H   0  0  0  0  0  0  0  0  0  0  0  0
    4.8347   -7.4579    0.9049 H   0  0  0  0  0  0  0  0  0  0  0  0
    3.2880   -6.7105    0.7087 H   0  0  0  0  0  0  0  0  0  0  0  0
    3.4273   -8.3920    0.5032 H   0  0  0  0  0  0  0  0  0  0  0  0
    5.6264   -8.3862    4.6513 H   0  0  0  0  0  0  0  0  0  0  0  0
    3.9380   -8.4429    5.2021 H   0  0  0  0  0  0  0  0  0  0  0  0
    4.9532   -7.2998    5.8290 H   0  0  0  0  0  0  0  0  0  0  0  0
    6.3507   -6.1903    2.8876 H   0  0  0  0  0  0  0  0  0  0  0  0
    4.6102   -5.2005    1.3486 H   0  0  0  0  0  0  0  0  0  0  0  0
    6.4385   -3.4201    2.1512 H   0  0  0  0  0  0  0  0  0  0  0  0
    6.6768   -1.8726    0.3493 H   0  0  0  0  0  0  0  0  0  0  0  0
    4.3982   -1.5416   -1.2281 H   0  0  0  0  0  0  0  0  0  0  0  0
    4.5717    0.1433    0.5142 H   0  0  0  0  0  0  0  0  0  0  0  0
    3.8829   -0.2707    2.9753 H   0  0  0  0  0  0  0  0  0  0  0  0
    5.4156   -2.1870    3.8774 H   0  0  0  0  0  0  0  0  0  0  0  0
    3.6833   -3.1187    4.7057 H   0  0  0  0  0  0  0  0  0  0  0  0
    1.4674   -2.6331    5.8183 H   0  0  0  0  0  0  0  0  0  0  0  0
   -0.5662   -0.9457    5.0867 H   0  0  0  0  0  0  0  0  0  0  0  0
    1.7758   -1.1468    1.7661 H   0  0  0  0  0  0  0  0  0  0  0  0
    2.3614   -3.5226    1.3029 H   0  0  0  0  0  0  0  0  0  0  0  0
    1.2458   -4.3307    2.3975 H   0  0  0  0  0  0  0  0  0  0  0  0
    2.1656   -5.1940    1.2015 H   0  0  0  0  0  0  0  0  0  0  0  0
  1  2  1  0
  1 37  1  0
  1 38  1  0
  1 39  1  0
  2  3  1  0
  3 19  1  0
  3  4  1  0
  3 40  1  6
  5  4  1  1
  5 17  1  0
  5 35  1  0
  5  6  1  0
  6  7  1  0
  6  8  1  0
  6 41  1  1
  7 42  1  0
  8 15  1  0
  8  9  1  6
  8 10  1  0
  9 43  1  0
 10 11  2  0
 10 44  1  0
 11 12  1  0
 11 45  1  0
 12 13  1  0
 12 46  1  0
 12 47  1  0
 13 14  1  0
 13 15  1  0
 13 48  1  1
 14 49  1  0
 15 16  1  6
 15 17  1  0
 16 50  1  0
 16 51  1  0
 16 52  1  0
 17 18  1  1
 17 19  1  0
 18 53  1  0
 18 54  1  0
 18 55  1  0
 19 20  1  0
 19 56  1  6
 20 35  1  0
 20 21  1  0
 20 57  1  6
 21 28  1  0
 21 22  1  0
 21 58  1  6
 22 23  1  0
 23 24  1  0
 23 25  1  0
 23 59  1  6
 24 60  1  0
 25 27  1  0
 25 26  1  0
 25 61  1  6
 26 27  1  0
 27 28  1  0
 27 62  1  1
 28 29  1  0
 28 63  1  1
 29 30  1  0
 29 35  1  0
 29 64  1  1
 30 34  2  0
 30 31  1  0
 31 32  2  0
 31 65  1  0
 32 33  1  0
 32 66  1  0
 33 34  1  0
 34 67  1  0
 35 36  1  6
 36 68  1  0
 36 69  1  0
 36 70  1  0
M  END
>  <i_m_ct_stereo_status>  (199) 
1

>  <s_m_source_file>  (199) 
/var/tmp/pbs.5076255.sched01/tmp9n4xeji_/82rcfztp6i.sdf

>  <i_m_source_file_index>  (199) 
4

>  <i_lp_mmshare_version>  (199) 
48012

>  <i_f3d_flags>  (199) 
2

>  <s_epik_input>  (199) 
W09IXVtDQEBIXTFbQ0gyXVtDSF09W0NIXVtDQEBdKFtPSF0pKFtDQEBIXTJbT0hdKVtDQEBdMShbQ0gzXSlbQ0BAXShbQ0BAXTIzNCkoW0NIM10pW0NASF0oW0NAQEhdKE8zKU9bQ0gzXSlbQ0BASF01W0NASF02W0NAQEhdKFtDQEBIXTdbQ0BIXShPNylbQ0BASF0oTzYpW09IXSlbQ0BIXShbQ0BAXTQ1W0NIM10pYzhbY0hdW2NIXW9bY0hdOA==

>  <s_epik_cmdline>  (199) 
J2VwaWtfcHl0aG9uJywgJy1waHQnLCAnMi4wJywgJy1waCcsICc3LjAnLCAnLXRuJywgJzgnLCAnLW1hJywgJzIwMCcsICctaW1hZScsICc8aW5maWxlLm1hZT4nLCAnLW9tYWUnLCAnPG91dGZpbGUubWFlPic=

>  <r_lp_tautomer_probability>  (199) 
1

>  <r_epik_Ionization_Penalty>  (199) 
5.23377e-07

>  <r_epik_Ionization_Penalty_Charging>  (199) 
0

>  <r_epik_Ionization_Penalty_Neutral>  (199) 
5.23377e-07

>  <r_epik_State_Penalty>  (199) 
-0

>  <r_epik_Charging_Adjusted_Penalty>  (199) 
0

>  <i_epik_Tot_Q>  (199) 
0

>  <i_epik_Tot_abs_Q>  (199) 
0

>  <s_epik_Chemistry_Notes>  (199) 
This compound contains an acetal/aminal-like group ( X-CH(R)-Y where X, Y are N, S, or O) that may be acid/base labile, releasing an aldehyde.

>  <s_lp_Force_Field>  (199) 
OPLS3e

>  <r_lp_Energy>  (199) 
133.96

>  <b_lp_Chiralities_Consistent>  (199) 
0

>  <s_lp_Variant>  (199) 
59:0-1

>  <s_i_glide_gridfile>  (199) 
pfpi4k_grid

>  <i_i_glide_lignum>  (199) 
4

>  <i_i_glide_rotatable_bonds>  (199) 
6

>  <r_i_docking_score>  (199) 
-2.50967

>  <r_i_glide_ligand_efficiency>  (199) 
-0.069713

>  <r_i_glide_ligand_efficiency_sa>  (199) 
-0.230187

>  <r_i_glide_ligand_efficiency_ln>  (199) 
-0.547541

>  <r_i_glide_gscore>  (199) 
-2.50967

>  <r_i_glide_lipo>  (199) 
-0.437805

>  <r_i_glide_hbond>  (199) 
-0.360173

>  <r_i_glide_metal>  (199) 
-0

>  <r_i_glide_rewards>  (199) 
-0.0543987

>  <r_i_glide_evdw>  (199) 
-23.5749

>  <r_i_glide_ecoul>  (199) 
-3.72968

>  <r_i_glide_erotb>  (199) 
0.0809074

>  <r_i_glide_esite>  (199) 
0

>  <r_i_glide_emodel>  (199) 
-32.6337

>  <r_i_glide_energy>  (199) 
-27.3046

>  <r_i_glide_einternal>  (199) 
1.85109

>  <r_i_glide_intrahb_reward>  (199) 
-0

>  <i_i_glide_confnum>  (199) 
2

>  <i_i_glide_posenum>  (199) 
13

>  <r_i_glide_eff_state_penalty>  (199) 
0

>  <ligand_id>  (199) 
59

>  <original_smiles>  (199) 
COC1OC23C(O)C4(O)C=CCC(O)C4(C)C2(C)C1C1C2OC(O)C4OC4C2C(c2ccoc2)C13C

>  <smiles>  (199) 
[H]OC1([H])OC2([H])C([H])(C3([H])OC13[H])C([H])(c1c([H])oc([H])c1[H])C1(C([H])([H])[H])C2([H])C2([H])C([H])(OC([H])([H])[H])OC13C([H])(O[H])C1(O[H])C([H])=C([H])C([H])([H])C([H])(O[H])C1(C([H])([H])[H])C23C([H])([H])[H]

$$$$
59:0:2
     RDKit          3D

 70 77  0  0  1  0  0  0  0  0999 V2000
    4.0625   -9.8072    8.4547 C   0  0  0  0  0  0  0  0  0  0  0  0
    3.8451  -10.0130    7.0674 O   0  0  0  0  0  0  0  0  0  0  0  0
    4.0471   -8.8761    6.2912 C   0  0  2  0  0  0  0  0  0  0  0  0
    3.1648   -7.7882    6.5559 O   0  0  0  0  0  0  0  0  0  0  0  0
    2.6281   -7.3708    5.2750 C   0  0  2  0  0  0  0  0  0  0  0  0
    1.2527   -6.6816    5.1706 C   0  0  1  0  0  0  0  0  0  0  0  0
    1.3190   -5.2734    5.2643 O   0  0  0  0  0  0  0  0  0  0  0  0
    0.5724   -7.2325    3.8553 C   0  0  2  0  0  0  0  0  0  0  0  0
    0.7727   -6.3293    2.7827 O   0  0  0  0  0  0  0  0  0  0  0  0
   -0.9436   -7.2549    3.9963 C   0  0  0  0  0  0  0  0  0  0  0  0
   -1.7212   -8.1897    3.4323 C   0  0  0  0  0  0  0  0  0  0  0  0
   -1.1292   -9.3526    2.6801 C   0  0  0  0  0  0  0  0  0  0  0  0
    0.1425   -9.8033    3.4136 C   0  0  1  0  0  0  0  0  0  0  0  0
    0.6243  -11.0186    2.8807 O   0  0  0  0  0  0  0  0  0  0  0  0
    1.2505   -8.6557    3.5429 C   0  0  1  0  0  0  0  0  0  0  0  0
    1.9670   -8.7647    2.1583 C   0  0  0  0  0  0  0  0  0  0  0  0
    2.2224   -8.7927    4.8154 C   0  0  2  0  0  0  0  0  0  0  0  0
    1.3688   -9.5630    5.9200 C   0  0  0  0  0  0  0  0  0  0  0  0
    3.7335   -9.1748    4.8067 C   0  0  1  0  0  0  0  0  0  0  0  0
    4.5062   -8.0798    4.0011 C   0  0  2  0  0  0  0  0  0  0  0  0
    6.0356   -7.9403    4.0995 C   0  0  1  0  0  0  0  0  0  0  0  0
    6.4769   -7.5490    2.7971 O   0  0  0  0  0  0  0  0  0  0  0  0
    7.8617   -7.4326    2.6452 C   0  0  1  0  0  0  0  0  0  0  0  0
    8.2157   -7.2066    1.3086 O   0  0  0  0  0  0  0  0  0  0  0  0
    8.3460   -6.3103    3.5455 C   0  0  2  0  0  0  0  0  0  0  0  0
    8.8061   -6.7447    4.8248 O   0  0  0  0  0  0  0  0  0  0  0  0
    7.5788   -5.9983    4.7950 C   0  0  2  0  0  0  0  0  0  0  0  0
    6.3490   -6.8324    5.1452 C   0  0  1  0  0  0  0  0  0  0  0  0
    5.0006   -6.0799    5.3884 C   0  0  1  0  0  0  0  0  0  0  0  0
    5.0607   -4.5509    5.4266 C   0  0  0  0  0  0  0  0  0  0  0  0
    4.7469   -3.7543    6.5686 C   0  0  0  0  0  0  0  0  0  0  0  0
    4.8858   -2.4495    6.2000 C   0  0  0  0  0  0  0  0  0  0  0  0
    5.2742   -2.3604    4.9064 O   0  0  0  0  0  0  0  0  0  0  0  0
    5.3914   -3.6328    4.4600 C   0  0  0  0  0  0  0  0  0  0  0  0
    3.8846   -6.7589    4.4749 C   0  0  2  0  0  0  0  0  0  0  0  0
    3.6512   -5.8035    3.2649 C   0  0  0  0  0  0  0  0  0  0  0  0
    3.8657  -10.7345    8.9920 H   0  0  0  0  0  0  0  0  0  0  0  0
    3.3950   -9.0439    8.8564 H   0  0  0  0  0  0  0  0  0  0  0  0
    5.0926   -9.5133    8.6583 H   0  0  0  0  0  0  0  0  0  0  0  0
    5.0798   -8.6205    6.4721 H   0  0  0  0  0  0  0  0  0  0  0  0
    0.6613   -6.9948    6.0340 H   0  0  0  0  0  0  0  0  0  0  0  0
    1.7885   -5.0656    6.0580 H   0  0  0  0  0  0  0  0  0  0  0  0
    1.7046   -6.2350    2.6638 H   0  0  0  0  0  0  0  0  0  0  0  0
   -1.3869   -6.4342    4.5391 H   0  0  0  0  0  0  0  0  0  0  0  0
   -2.7967   -8.1475    3.5004 H   0  0  0  0  0  0  0  0  0  0  0  0
   -1.8503  -10.1681    2.6644 H   0  0  0  0  0  0  0  0  0  0  0  0
   -0.9553   -9.0599    1.6482 H   0  0  0  0  0  0  0  0  0  0  0  0
   -0.2900  -10.1307    4.3451 H   0  0  0  0  0  0  0  0  0  0  0  0
    1.2089  -11.4198    3.5067 H   0  0  0  0  0  0  0  0  0  0  0  0
    2.6228   -9.6330    2.1251 H   0  0  0  0  0  0  0  0  0  0  0  0
    2.5586   -7.9337    1.8374 H   0  0  0  0  0  0  0  0  0  0  0  0
    1.2567   -8.8870    1.3448 H   0  0  0  0  0  0  0  0  0  0  0  0
    1.3502  -10.6392    5.7283 H   0  0  0  0  0  0  0  0  0  0  0  0
    0.3450   -9.1951    5.9908 H   0  0  0  0  0  0  0  0  0  0  0  0
    1.6523   -9.4581    6.9625 H   0  0  0  0  0  0  0  0  0  0  0  0
    3.9667  -10.2026    4.5289 H   0  0  0  0  0  0  0  0  0  0  0  0
    4.3119   -8.2689    2.9508 H   0  0  0  0  0  0  0  0  0  0  0  0
    6.5023   -8.8897    4.3550 H   0  0  0  0  0  0  0  0  0  0  0  0
    8.3346   -8.3846    2.9151 H   0  0  0  0  0  0  0  0  0  0  0  0
    9.1426   -7.4313    1.2364 H   0  0  0  0  0  0  0  0  0  0  0  0
    8.9640   -5.5326    3.0993 H   0  0  0  0  0  0  0  0  0  0  0  0
    7.6888   -5.0397    5.2981 H   0  0  0  0  0  0  0  0  0  0  0  0
    6.6328   -7.3134    6.0885 H   0  0  0  0  0  0  0  0  0  0  0  0
    4.8020   -6.2746    6.4394 H   0  0  0  0  0  0  0  0  0  0  0  0
    4.4417   -4.0968    7.5482 H   0  0  0  0  0  0  0  0  0  0  0  0
    4.7494   -1.5055    6.7118 H   0  0  0  0  0  0  0  0  0  0  0  0
    5.6990   -3.6968    3.4286 H   0  0  0  0  0  0  0  0  0  0  0  0
    4.6126   -5.5325    2.8315 H   0  0  0  0  0  0  0  0  0  0  0  0
    3.1394   -4.8844    3.5484 H   0  0  0  0  0  0  0  0  0  0  0  0
    3.1437   -6.1848    2.4010 H   0  0  0  0  0  0  0  0  0  0  0  0
  1  2  1  0
  1 37  1  0
  1 38  1  0
  1 39  1  0
  2  3  1  0
  3 19  1  0
  3  4  1  0
  3 40  1  6
  5  4  1  1
  5 17  1  0
  5 35  1  0
  5  6  1  0
  6  7  1  0
  6  8  1  0
  6 41  1  1
  7 42  1  0
  8 15  1  0
  8  9  1  6
  8 10  1  0
  9 43  1  0
 10 11  2  0
 10 44  1  0
 11 12  1  0
 11 45  1  0
 12 13  1  0
 12 46  1  0
 12 47  1  0
 13 14  1  0
 13 15  1  0
 13 48  1  1
 14 49  1  0
 15 16  1  6
 15 17  1  0
 16 50  1  0
 16 51  1  0
 16 52  1  0
 17 18  1  1
 17 19  1  0
 18 53  1  0
 18 54  1  0
 18 55  1  0
 19 20  1  0
 19 56  1  6
 20 35  1  0
 20 21  1  0
 20 57  1  6
 21 28  1  0
 21 22  1  0
 21 58  1  1
 22 23  1  0
 23 24  1  0
 23 25  1  0
 23 59  1  1
 24 60  1  0
 25 27  1  0
 25 26  1  0
 25 61  1  6
 26 27  1  0
 27 28  1  0
 27 62  1  1
 28 29  1  0
 28 63  1  1
 29 30  1  0
 29 35  1  0
 29 64  1  1
 30 34  2  0
 30 31  1  0
 31 32  2  0
 31 65  1  0
 32 33  1  0
 32 66  1  0
 33 34  1  0
 34 67  1  0
 35 36  1  6
 36 68  1  0
 36 69  1  0
 36 70  1  0
M  END
>  <i_m_ct_stereo_status>  (200) 
1

>  <s_m_source_file>  (200) 
/var/tmp/pbs.5076255.sched01/tmp9n4xeji_/82rcfztp6i.sdf

>  <i_m_source_file_index>  (200) 
4

>  <i_lp_mmshare_version>  (200) 
48012

>  <i_f3d_flags>  (200) 
2

>  <s_epik_input>  (200) 
W09IXVtDQEBIXTFbQ0gyXVtDSF09W0NIXVtDQEBdKFtPSF0pKFtDQEBIXTJbT0hdKVtDQEBdMShbQ0gzXSlbQ0BAXShbQ0BAXTIzNCkoW0NIM10pW0NASF0oW0NAQEhdKE8zKU9bQ0gzXSlbQ0BASF01W0NASF02W0NAQEhdKFtDQEBIXTdbQ0BIXShPNylbQ0BASF0oTzYpW09IXSlbQ0BIXShbQ0BAXTQ1W0NIM10pYzhbY0hdW2NIXW9bY0hdOA==

>  <s_epik_cmdline>  (200) 
J2VwaWtfcHl0aG9uJywgJy1waHQnLCAnMi4wJywgJy1waCcsICc3LjAnLCAnLXRuJywgJzgnLCAnLW1hJywgJzIwMCcsICctaW1hZScsICc8aW5maWxlLm1hZT4nLCAnLW9tYWUnLCAnPG91dGZpbGUubWFlPic=

>  <r_lp_tautomer_probability>  (200) 
1

>  <r_epik_Ionization_Penalty>  (200) 
5.23377e-07

>  <r_epik_Ionization_Penalty_Charging>  (200) 
0

>  <r_epik_Ionization_Penalty_Neutral>  (200) 
5.23377e-07

>  <r_epik_State_Penalty>  (200) 
-0

>  <r_epik_Charging_Adjusted_Penalty>  (200) 
0

>  <i_epik_Tot_Q>  (200) 
0

>  <i_epik_Tot_abs_Q>  (200) 
0

>  <s_epik_Chemistry_Notes>  (200) 
This compound contains an acetal/aminal-like group ( X-CH(R)-Y where X, Y are N, S, or O) that may be acid/base labile, releasing an aldehyde.

>  <s_lp_Force_Field>  (200) 
OPLS3e

>  <r_lp_Energy>  (200) 
133.96

>  <b_lp_Chiralities_Consistent>  (200) 
0

>  <s_lp_Variant>  (200) 
59:0-1

>  <s_i_glide_gridfile>  (200) 
pfpi4k_grid

>  <i_i_glide_lignum>  (200) 
4

>  <i_i_glide_rotatable_bonds>  (200) 
6

>  <r_i_docking_score>  (200) 
-1.98492

>  <r_i_glide_ligand_efficiency>  (200) 
-0.0551366

>  <r_i_glide_ligand_efficiency_sa>  (200) 
-0.182057

>  <r_i_glide_ligand_efficiency_ln>  (200) 
-0.433055

>  <r_i_glide_gscore>  (200) 
-1.98492

>  <r_i_glide_lipo>  (200) 
-0.146576

>  <r_i_glide_hbond>  (200) 
0

>  <r_i_glide_metal>  (200) 
-0

>  <r_i_glide_rewards>  (200) 
0

>  <r_i_glide_evdw>  (200) 
-21.7635

>  <r_i_glide_ecoul>  (200) 
-5.31985

>  <r_i_glide_erotb>  (200) 
0.0809074

>  <r_i_glide_esite>  (200) 
-0.0330941

>  <r_i_glide_emodel>  (200) 
-30.4165

>  <r_i_glide_energy>  (200) 
-27.0834

>  <r_i_glide_einternal>  (200) 
3.02746

>  <r_i_glide_intrahb_reward>  (200) 
-0

>  <i_i_glide_confnum>  (200) 
2

>  <i_i_glide_posenum>  (200) 
36

>  <r_i_glide_eff_state_penalty>  (200) 
0

>  <ligand_id>  (200) 
59

>  <original_smiles>  (200) 
COC1OC23C(O)C4(O)C=CCC(O)C4(C)C2(C)C1C1C2OC(O)C4OC4C2C(c2ccoc2)C13C

>  <smiles>  (200) 
[H]OC1([H])OC2([H])C([H])(C3([H])OC13[H])C([H])(c1c([H])oc([H])c1[H])C1(C([H])([H])[H])C2([H])C2([H])C([H])(OC([H])([H])[H])OC13C([H])(O[H])C1(O[H])C([H])=C([H])C([H])([H])C([H])(O[H])C1(C([H])([H])[H])C23C([H])([H])[H]

$$$$
61:0:0
     RDKit          3D

 33 36  0  0  1  0  0  0  0  0999 V2000
    3.8067    0.3192   -4.1870 C   0  0  0  0  0  0  0  0  0  0  0  0
    3.8806   -0.8123   -3.1790 C   0  0  1  0  0  0  0  0  0  0  0  0
    3.0102   -2.0042   -3.5159 C   0  0  0  0  0  0  0  0  0  0  0  0
    2.7195   -3.0788   -2.4242 C   0  0  0  0  0  0  0  0  0  0  0  0
    3.8966   -3.7920   -1.6752 C   0  0  1  0  0  0  0  0  0  0  0  0
    5.0091   -4.2173   -2.6385 C   0  0  1  0  0  0  0  0  0  0  0  0
    4.6201   -4.6268   -3.9228 O   0  0  0  0  0  0  0  0  0  0  0  0
    5.8962   -3.0537   -2.7856 C   0  0  2  0  0  0  0  0  0  0  0  0
    6.8850   -2.6316   -1.8567 O   0  0  0  0  0  0  0  0  0  0  0  0
    5.5349   -2.1414   -1.6261 C   0  0  1  0  0  0  0  0  0  0  0  0
    5.0790   -0.8706   -2.2518 C   0  0  2  0  0  0  0  0  0  0  0  0
    3.8109   -0.4316   -1.8302 O   0  0  0  0  0  0  0  0  0  0  0  0
    4.6748   -2.9452   -0.6672 C   0  0  0  0  0  0  0  0  0  0  0  0
    3.7583   -2.1759    0.3119 C   0  0  0  0  0  0  0  0  0  0  0  0
    5.5573   -3.8320    0.2615 C   0  0  0  0  0  0  0  0  0  0  0  0
    4.2296   -0.0170   -5.1287 H   0  0  0  0  0  0  0  0  0  0  0  0
    4.3581    1.1955   -3.8441 H   0  0  0  0  0  0  0  0  0  0  0  0
    2.7781    0.6412   -4.3520 H   0  0  0  0  0  0  0  0  0  0  0  0
    2.0488   -1.6386   -3.8556 H   0  0  0  0  0  0  0  0  0  0  0  0
    3.4595   -2.4616   -4.3925 H   0  0  0  0  0  0  0  0  0  0  0  0
    1.9730   -2.7520   -1.7062 H   0  0  0  0  0  0  0  0  0  0  0  0
    2.1863   -3.8570   -2.9674 H   0  0  0  0  0  0  0  0  0  0  0  0
    3.4906   -4.6473   -1.1242 H   0  0  0  0  0  0  0  0  0  0  0  0
    5.4853   -5.0450   -2.1426 H   0  0  0  0  0  0  0  0  0  0  0  0
    3.9877   -5.3213   -3.7390 H   0  0  0  0  0  0  0  0  0  0  0  0
    5.9475   -2.6565   -3.7785 H   0  0  0  0  0  0  0  0  0  0  0  0
    5.8006   -0.0652   -2.3222 H   0  0  0  0  0  0  0  0  0  0  0  0
    4.3337   -1.4224    0.8434 H   0  0  0  0  0  0  0  0  0  0  0  0
    3.3161   -2.8468    1.0463 H   0  0  0  0  0  0  0  0  0  0  0  0
    2.9155   -1.6733   -0.1458 H   0  0  0  0  0  0  0  0  0  0  0  0
    6.1059   -3.1996    0.9603 H   0  0  0  0  0  0  0  0  0  0  0  0
    6.3063   -4.4349   -0.2520 H   0  0  0  0  0  0  0  0  0  0  0  0
    4.9570   -4.5216    0.8525 H   0  0  0  0  0  0  0  0  0  0  0  0
  2  1  1  6
  1 16  1  0
  1 17  1  0
  1 18  1  0
  2 11  1  0
  2 12  1  0
  2  3  1  0
  3  4  1  0
  3 19  1  0
  3 20  1  0
  4  5  1  0
  4 21  1  0
  4 22  1  0
  5 13  1  0
  5  6  1  0
  5 23  1  1
  6  7  1  0
  6  8  1  0
  6 24  1  1
  7 25  1  0
  8 10  1  0
  8  9  1  0
  8 26  1  6
 10  9  1  1
 10 11  1  0
 10 13  1  0
 11 12  1  0
 11 27  1  6
 13 14  1  0
 13 15  1  0
 14 28  1  0
 14 29  1  0
 14 30  1  0
 15 31  1  0
 15 32  1  0
 15 33  1  0
M  END
>  <i_m_ct_stereo_status>  (201) 
1

>  <s_m_source_file>  (201) 
/var/tmp/pbs.5076255.sched01/tmp9n4xeji_/82rcfztp6i.sdf

>  <i_m_source_file_index>  (201) 
6

>  <i_lp_mmshare_version>  (201) 
48012

>  <i_f3d_flags>  (201) 
0

>  <s_epik_input>  (201) 
TzFbQ0BASF0yW0NAQF0xKFtDSDNdKVtDSDJdW0NIMl1bQ0BASF0oW0NAQEhdKFtPSF0pW0NASF0oTzMpW0NAXTIzNClDNChbQ0gzXSlbQ0gzXQ==

>  <s_epik_cmdline>  (201) 
J2VwaWtfcHl0aG9uJywgJy1waHQnLCAnMi4wJywgJy1waCcsICc3LjAnLCAnLXRuJywgJzgnLCAnLW1hJywgJzIwMCcsICctaW1hZScsICc8aW5maWxlLm1hZT4nLCAnLW9tYWUnLCAnPG91dGZpbGUubWFlPic=

>  <r_lp_tautomer_probability>  (201) 
1

>  <r_epik_Ionization_Penalty>  (201) 
5.12613e-08

>  <r_epik_Ionization_Penalty_Charging>  (201) 
0

>  <r_epik_Ionization_Penalty_Neutral>  (201) 
5.12613e-08

>  <r_epik_State_Penalty>  (201) 
-0

>  <r_epik_Charging_Adjusted_Penalty>  (201) 
0

>  <i_epik_Tot_Q>  (201) 
0

>  <i_epik_Tot_abs_Q>  (201) 
0

>  <s_lp_Force_Field>  (201) 
OPLS3e

>  <r_lp_Energy>  (201) 
52.0415

>  <b_lp_Chiralities_Consistent>  (201) 
1

>  <s_lp_Variant>  (201) 
61:0-1

>  <s_i_glide_gridfile>  (201) 
pfpi4k_grid

>  <i_i_glide_lignum>  (201) 
6

>  <i_i_glide_rotatable_bonds>  (201) 
1

>  <r_i_docking_score>  (201) 
-3.806

>  <r_i_glide_ligand_efficiency>  (201) 
-0.253733

>  <r_i_glide_ligand_efficiency_sa>  (201) 
-0.62576

>  <r_i_glide_ligand_efficiency_ln>  (201) 
-1.02641

>  <r_i_glide_gscore>  (201) 
-3.806

>  <r_i_glide_lipo>  (201) 
-0.659508

>  <r_i_glide_hbond>  (201) 
-0.412875

>  <r_i_glide_metal>  (201) 
-0

>  <r_i_glide_rewards>  (201) 
-1.97544

>  <r_i_glide_evdw>  (201) 
-0.501345

>  <r_i_glide_ecoul>  (201) 
-4.88742

>  <r_i_glide_erotb>  (201) 
0

>  <r_i_glide_esite>  (201) 
0

>  <r_i_glide_emodel>  (201) 
-9.33612

>  <r_i_glide_energy>  (201) 
-5.38876

>  <r_i_glide_einternal>  (201) 
0.676778

>  <r_i_glide_intrahb_reward>  (201) 
-0

>  <i_i_glide_confnum>  (201) 
1

>  <i_i_glide_posenum>  (201) 
14

>  <r_i_glide_eff_state_penalty>  (201) 
0

>  <ligand_id>  (201) 
61

>  <original_smiles>  (201) 
CC12CCC3C(O)C4OC4(C1O2)C3(C)C

>  <smiles>  (201) 
[H]OC1([H])C2([H])OC23C2([H])OC2(C([H])([H])[H])C([H])([H])C([H])([H])C1([H])C3(C([H])([H])[H])C([H])([H])[H]

$$$$
61:0:1
     RDKit          3D

 33 36  0  0  1  0  0  0  0  0999 V2000
    3.2624   -2.9062    3.2398 C   0  0  0  0  0  0  0  0  0  0  0  0
    3.6500   -2.7058    1.7896 C   0  0  1  0  0  0  0  0  0  0  0  0
    4.3552   -1.3525    1.5694 C   0  0  0  0  0  0  0  0  0  0  0  0
    4.6443   -0.8125    0.1264 C   0  0  0  0  0  0  0  0  0  0  0  0
    5.4363   -1.6597   -0.9301 C   0  0  1  0  0  0  0  0  0  0  0  0
    6.7172   -2.3123   -0.3537 C   0  0  1  0  0  0  0  0  0  0  0  0
    7.4875   -1.4618    0.4685 O   0  0  0  0  0  0  0  0  0  0  0  0
    6.2107   -3.5473    0.3432 C   0  0  2  0  0  0  0  0  0  0  0  0
    5.9048   -4.7620   -0.3147 O   0  0  0  0  0  0  0  0  0  0  0  0
    4.8232   -3.8241   -0.2410 C   0  0  1  0  0  0  0  0  0  0  0  0
    3.8361   -3.9061    0.9004 C   0  0  2  0  0  0  0  0  0  0  0  0
    2.6428   -3.0969    0.8560 O   0  0  0  0  0  0  0  0  0  0  0  0
    4.6492   -2.8855   -1.4371 C   0  0  0  0  0  0  0  0  0  0  0  0
    3.1923   -2.6124   -1.8798 C   0  0  0  0  0  0  0  0  0  0  0  0
    5.3051   -3.4822   -2.7119 C   0  0  0  0  0  0  0  0  0  0  0  0
    4.1551   -2.9560    3.8657 H   0  0  0  0  0  0  0  0  0  0  0  0
    2.7115   -3.8413    3.3517 H   0  0  0  0  0  0  0  0  0  0  0  0
    2.6259   -2.0923    3.5859 H   0  0  0  0  0  0  0  0  0  0  0  0
    3.7583   -0.5924    2.0749 H   0  0  0  0  0  0  0  0  0  0  0  0
    5.2913   -1.3882    2.1282 H   0  0  0  0  0  0  0  0  0  0  0  0
    3.7153   -0.4490   -0.3098 H   0  0  0  0  0  0  0  0  0  0  0  0
    5.2189    0.1038    0.2752 H   0  0  0  0  0  0  0  0  0  0  0  0
    5.6797   -1.0022   -1.7678 H   0  0  0  0  0  0  0  0  0  0  0  0
    7.3922   -2.6246   -1.1495 H   0  0  0  0  0  0  0  0  0  0  0  0
    6.9745   -1.1874    1.2161 H   0  0  0  0  0  0  0  0  0  0  0  0
    6.3802   -3.6355    1.4148 H   0  0  0  0  0  0  0  0  0  0  0  0
    3.6916   -4.8889    1.3517 H   0  0  0  0  0  0  0  0  0  0  0  0
    2.6473   -3.5485   -2.0140 H   0  0  0  0  0  0  0  0  0  0  0  0
    3.1640   -2.0765   -2.8280 H   0  0  0  0  0  0  0  0  0  0  0  0
    2.6165   -2.0115   -1.1887 H   0  0  0  0  0  0  0  0  0  0  0  0
    4.7545   -4.3639   -3.0402 H   0  0  0  0  0  0  0  0  0  0  0  0
    6.3368   -3.8015   -2.5894 H   0  0  0  0  0  0  0  0  0  0  0  0
    5.2907   -2.7631   -3.5296 H   0  0  0  0  0  0  0  0  0  0  0  0
  2  1  1  1
  1 16  1  0
  1 17  1  0
  1 18  1  0
  2 11  1  0
  2 12  1  0
  2  3  1  0
  3  4  1  0
  3 19  1  0
  3 20  1  0
  4  5  1  0
  4 21  1  0
  4 22  1  0
  5 13  1  0
  5  6  1  0
  5 23  1  6
  6  7  1  0
  6  8  1  0
  6 24  1  6
  7 25  1  0
  8 10  1  0
  8  9  1  0
  8 26  1  1
 10  9  1  6
 10 11  1  0
 10 13  1  0
 11 12  1  0
 11 27  1  1
 13 14  1  0
 13 15  1  0
 14 28  1  0
 14 29  1  0
 14 30  1  0
 15 31  1  0
 15 32  1  0
 15 33  1  0
M  END
>  <i_m_ct_stereo_status>  (202) 
1

>  <s_m_source_file>  (202) 
/var/tmp/pbs.5076255.sched01/tmp9n4xeji_/82rcfztp6i.sdf

>  <i_m_source_file_index>  (202) 
6

>  <i_lp_mmshare_version>  (202) 
48012

>  <i_f3d_flags>  (202) 
0

>  <s_epik_input>  (202) 
TzFbQ0BASF0yW0NAQF0xKFtDSDNdKVtDSDJdW0NIMl1bQ0BASF0oW0NAQEhdKFtPSF0pW0NASF0oTzMpW0NAXTIzNClDNChbQ0gzXSlbQ0gzXQ==

>  <s_epik_cmdline>  (202) 
J2VwaWtfcHl0aG9uJywgJy1waHQnLCAnMi4wJywgJy1waCcsICc3LjAnLCAnLXRuJywgJzgnLCAnLW1hJywgJzIwMCcsICctaW1hZScsICc8aW5maWxlLm1hZT4nLCAnLW9tYWUnLCAnPG91dGZpbGUubWFlPic=

>  <r_lp_tautomer_probability>  (202) 
1

>  <r_epik_Ionization_Penalty>  (202) 
5.12613e-08

>  <r_epik_Ionization_Penalty_Charging>  (202) 
0

>  <r_epik_Ionization_Penalty_Neutral>  (202) 
5.12613e-08

>  <r_epik_State_Penalty>  (202) 
-0

>  <r_epik_Charging_Adjusted_Penalty>  (202) 
0

>  <i_epik_Tot_Q>  (202) 
0

>  <i_epik_Tot_abs_Q>  (202) 
0

>  <s_lp_Force_Field>  (202) 
OPLS3e

>  <r_lp_Energy>  (202) 
52.0415

>  <b_lp_Chiralities_Consistent>  (202) 
1

>  <s_lp_Variant>  (202) 
61:0-1

>  <s_i_glide_gridfile>  (202) 
pfpi4k_grid

>  <i_i_glide_lignum>  (202) 
6

>  <i_i_glide_rotatable_bonds>  (202) 
1

>  <r_i_docking_score>  (202) 
-3.38637

>  <r_i_glide_ligand_efficiency>  (202) 
-0.225758

>  <r_i_glide_ligand_efficiency_sa>  (202) 
-0.556766

>  <r_i_glide_ligand_efficiency_ln>  (202) 
-0.913247

>  <r_i_glide_gscore>  (202) 
-3.38637

>  <r_i_glide_lipo>  (202) 
-0.361663

>  <r_i_glide_hbond>  (202) 
-0.025294

>  <r_i_glide_metal>  (202) 
-0

>  <r_i_glide_rewards>  (202) 
-1.97544

>  <r_i_glide_evdw>  (202) 
-18.7734

>  <r_i_glide_ecoul>  (202) 
-0.568693

>  <r_i_glide_erotb>  (202) 
0

>  <r_i_glide_esite>  (202) 
0

>  <r_i_glide_emodel>  (202) 
-23.511

>  <r_i_glide_energy>  (202) 
-19.3421

>  <r_i_glide_einternal>  (202) 
0.00138362

>  <r_i_glide_intrahb_reward>  (202) 
-0

>  <i_i_glide_confnum>  (202) 
2

>  <i_i_glide_posenum>  (202) 
22

>  <r_i_glide_eff_state_penalty>  (202) 
0

>  <ligand_id>  (202) 
61

>  <original_smiles>  (202) 
CC12CCC3C(O)C4OC4(C1O2)C3(C)C

>  <smiles>  (202) 
[H]OC1([H])C2([H])OC23C2([H])OC2(C([H])([H])[H])C([H])([H])C([H])([H])C1([H])C3(C([H])([H])[H])C([H])([H])[H]

$$$$
61:0:2
     RDKit          3D

 33 36  0  0  1  0  0  0  0  0999 V2000
    4.0803   -3.3975    2.7599 C   0  0  0  0  0  0  0  0  0  0  0  0
    4.1938   -2.8487    1.3528 C   0  0  1  0  0  0  0  0  0  0  0  0
    5.2506   -1.7342    1.2532 C   0  0  0  0  0  0  0  0  0  0  0  0
    5.3864   -0.8640   -0.0415 C   0  0  0  0  0  0  0  0  0  0  0  0
    5.5965   -1.5114   -1.4606 C   0  0  1  0  0  0  0  0  0  0  0  0
    6.6766   -2.6210   -1.4572 C   0  0  1  0  0  0  0  0  0  0  0  0
    7.8287   -2.2729   -0.7164 O   0  0  0  0  0  0  0  0  0  0  0  0
    5.9419   -3.8350   -0.9474 C   0  0  2  0  0  0  0  0  0  0  0  0
    5.0891   -4.6495   -1.7481 O   0  0  0  0  0  0  0  0  0  0  0  0
    4.4590   -3.5306   -1.1354 C   0  0  1  0  0  0  0  0  0  0  0  0
    3.7600   -3.7027    0.1898 C   0  0  2  0  0  0  0  0  0  0  0  0
    2.9367   -2.6370    0.7055 O   0  0  0  0  0  0  0  0  0  0  0  0
    4.3808   -2.2755   -1.9948 C   0  0  0  0  0  0  0  0  0  0  0  0
    3.0719   -1.5016   -1.9306 C   0  0  0  0  0  0  0  0  0  0  0  0
    4.5091   -2.6023   -3.5040 C   0  0  0  0  0  0  0  0  0  0  0  0
    5.0162   -3.8719    3.0582 H   0  0  0  0  0  0  0  0  0  0  0  0
    3.2850   -4.1395    2.8051 H   0  0  0  0  0  0  0  0  0  0  0  0
    3.8429   -2.5965    3.4598 H   0  0  0  0  0  0  0  0  0  0  0  0
    5.0674   -1.0452    2.0789 H   0  0  0  0  0  0  0  0  0  0  0  0
    6.2162   -2.1871    1.4822 H   0  0  0  0  0  0  0  0  0  0  0  0
    4.5724   -0.1420   -0.0772 H   0  0  0  0  0  0  0  0  0  0  0  0
    6.2541   -0.2274    0.1340 H   0  0  0  0  0  0  0  0  0  0  0  0
    5.8163   -0.7034   -2.1592 H   0  0  0  0  0  0  0  0  0  0  0  0
    7.0392   -2.8304   -2.4629 H   0  0  0  0  0  0  0  0  0  0  0  0
    7.6234   -2.2581    0.2061 H   0  0  0  0  0  0  0  0  0  0  0  0
    6.2981   -4.3053   -0.0291 H   0  0  0  0  0  0  0  0  0  0  0  0
    3.4023   -4.7076    0.4174 H   0  0  0  0  0  0  0  0  0  0  0  0
    2.2322   -2.1777   -2.0980 H   0  0  0  0  0  0  0  0  0  0  0  0
    3.0215   -0.6999   -2.6684 H   0  0  0  0  0  0  0  0  0  0  0  0
    2.9381   -1.0272   -0.9655 H   0  0  0  0  0  0  0  0  0  0  0  0
    3.6315   -3.1514   -3.8456 H   0  0  0  0  0  0  0  0  0  0  0  0
    5.3754   -3.2076   -3.7662 H   0  0  0  0  0  0  0  0  0  0  0  0
    4.5659   -1.6828   -4.0923 H   0  0  0  0  0  0  0  0  0  0  0  0
  2  1  1  1
  1 16  1  0
  1 17  1  0
  1 18  1  0
  2 11  1  0
  2 12  1  0
  2  3  1  0
  3  4  1  0
  3 19  1  0
  3 20  1  0
  4  5  1  0
  4 21  1  0
  4 22  1  0
  5 13  1  0
  5  6  1  0
  5 23  1  6
  6  7  1  0
  6  8  1  0
  6 24  1  6
  7 25  1  0
  8 10  1  0
  8  9  1  0
  8 26  1  1
 10  9  1  6
 10 11  1  0
 10 13  1  0
 11 12  1  0
 11 27  1  1
 13 14  1  0
 13 15  1  0
 14 28  1  0
 14 29  1  0
 14 30  1  0
 15 31  1  0
 15 32  1  0
 15 33  1  0
M  END
>  <i_m_ct_stereo_status>  (203) 
1

>  <s_m_source_file>  (203) 
/var/tmp/pbs.5076255.sched01/tmp9n4xeji_/82rcfztp6i.sdf

>  <i_m_source_file_index>  (203) 
6

>  <i_lp_mmshare_version>  (203) 
48012

>  <i_f3d_flags>  (203) 
0

>  <s_epik_input>  (203) 
TzFbQ0BASF0yW0NAQF0xKFtDSDNdKVtDSDJdW0NIMl1bQ0BASF0oW0NAQEhdKFtPSF0pW0NASF0oTzMpW0NAXTIzNClDNChbQ0gzXSlbQ0gzXQ==

>  <s_epik_cmdline>  (203) 
J2VwaWtfcHl0aG9uJywgJy1waHQnLCAnMi4wJywgJy1waCcsICc3LjAnLCAnLXRuJywgJzgnLCAnLW1hJywgJzIwMCcsICctaW1hZScsICc8aW5maWxlLm1hZT4nLCAnLW9tYWUnLCAnPG91dGZpbGUubWFlPic=

>  <r_lp_tautomer_probability>  (203) 
1

>  <r_epik_Ionization_Penalty>  (203) 
5.12613e-08

>  <r_epik_Ionization_Penalty_Charging>  (203) 
0

>  <r_epik_Ionization_Penalty_Neutral>  (203) 
5.12613e-08

>  <r_epik_State_Penalty>  (203) 
-0

>  <r_epik_Charging_Adjusted_Penalty>  (203) 
0

>  <i_epik_Tot_Q>  (203) 
0

>  <i_epik_Tot_abs_Q>  (203) 
0

>  <s_lp_Force_Field>  (203) 
OPLS3e

>  <r_lp_Energy>  (203) 
52.0415

>  <b_lp_Chiralities_Consistent>  (203) 
1

>  <s_lp_Variant>  (203) 
61:0-1

>  <s_i_glide_gridfile>  (203) 
pfpi4k_grid

>  <i_i_glide_lignum>  (203) 
6

>  <i_i_glide_rotatable_bonds>  (203) 
1

>  <r_i_docking_score>  (203) 
-3.17093

>  <r_i_glide_ligand_efficiency>  (203) 
-0.211396

>  <r_i_glide_ligand_efficiency_sa>  (203) 
-0.521346

>  <r_i_glide_ligand_efficiency_ln>  (203) 
-0.855149

>  <r_i_glide_gscore>  (203) 
-3.17093

>  <r_i_glide_lipo>  (203) 
-0.277033

>  <r_i_glide_hbond>  (203) 
-0.16

>  <r_i_glide_metal>  (203) 
-0

>  <r_i_glide_rewards>  (203) 
-1.97544

>  <r_i_glide_evdw>  (203) 
-15.1378

>  <r_i_glide_ecoul>  (203) 
-0.0104917

>  <r_i_glide_erotb>  (203) 
0

>  <r_i_glide_esite>  (203) 
0

>  <r_i_glide_emodel>  (203) 
-18.8057

>  <r_i_glide_energy>  (203) 
-15.1483

>  <r_i_glide_einternal>  (203) 
0.0302901

>  <r_i_glide_intrahb_reward>  (203) 
-0

>  <i_i_glide_confnum>  (203) 
2

>  <i_i_glide_posenum>  (203) 
2

>  <r_i_glide_eff_state_penalty>  (203) 
0

>  <ligand_id>  (203) 
61

>  <original_smiles>  (203) 
CC12CCC3C(O)C4OC4(C1O2)C3(C)C

>  <smiles>  (203) 
[H]OC1([H])C2([H])OC23C2([H])OC2(C([H])([H])[H])C([H])([H])C([H])([H])C1([H])C3(C([H])([H])[H])C([H])([H])[H]

$$$$
62:0:0
     RDKit          3D

 57 60  0  0  1  0  0  0  0  0999 V2000
    4.3353   -1.9091   -2.1995 C   0  0  0  0  0  0  0  0  0  0  0  0
    4.7738   -2.9901   -1.2255 C   0  0  2  0  0  0  0  0  0  0  0  0
    5.0063   -4.1455   -2.0227 O   0  0  0  0  0  0  0  0  0  0  0  0
    3.7939   -3.2757   -0.0415 C   0  0  2  0  0  0  0  0  0  0  0  0
    3.5375   -2.0477    0.8862 C   0  0  0  0  0  0  0  0  0  0  0  0
    3.4951   -2.5527    2.3489 C   0  0  0  0  0  0  0  0  0  0  0  0
    3.3414   -4.0769    2.1738 C   0  0  2  0  0  0  0  0  0  0  0  0
    3.6960   -5.0350    3.3420 C   0  0  1  0  0  0  0  0  0  0  0  0
    2.9875   -4.7218    4.6646 C   0  0  0  0  0  0  0  0  0  0  0  0
    1.5796   -5.2902    4.7190 C   0  0  0  0  0  0  0  0  0  0  0  0
    1.1071   -6.2554    3.9141 C   0  0  0  0  0  0  0  0  0  0  0  0
   -0.3248   -6.7465    4.0483 C   0  0  0  0  0  0  0  0  0  0  0  0
   -0.3912   -8.2814    4.1600 C   0  0  1  0  0  0  0  0  0  0  0  0
   -1.7502   -8.6740    4.0954 O   0  0  0  0  0  0  0  0  0  0  0  0
    0.3940   -9.0103    3.0562 C   0  0  0  0  0  0  0  0  0  0  0  0
    1.8467   -8.4982    3.0259 C   0  0  0  0  0  0  0  0  0  0  0  0
    1.9224   -6.9575    2.8039 C   0  0  1  0  0  0  0  0  0  0  0  0
    1.2517   -6.6459    1.4345 C   0  0  0  0  0  0  0  0  0  0  0  0
    3.4454   -6.5093    2.8653 C   0  0  1  0  0  0  0  0  0  0  0  0
    4.2349   -6.8478    1.5696 C   0  0  0  0  0  0  0  0  0  0  0  0
    3.9901   -5.8390    0.4241 C   0  0  0  0  0  0  0  0  0  0  0  0
    4.2568   -4.3831    0.9329 C   0  0  1  0  0  0  0  0  0  0  0  0
    5.7844   -4.2271    1.2419 C   0  0  0  0  0  0  0  0  0  0  0  0
    4.2172   -0.9644   -1.6806 H   0  0  0  0  0  0  0  0  0  0  0  0
    3.4041   -2.1819   -2.6862 H   0  0  0  0  0  0  0  0  0  0  0  0
    5.1135   -1.7917   -2.9515 H   0  0  0  0  0  0  0  0  0  0  0  0
    5.7291   -2.6505   -0.8296 H   0  0  0  0  0  0  0  0  0  0  0  0
    4.2017   -4.5994   -2.1679 H   0  0  0  0  0  0  0  0  0  0  0  0
    2.8166   -3.5666   -0.4666 H   0  0  0  0  0  0  0  0  0  0  0  0
    4.3347   -1.3148    0.7681 H   0  0  0  0  0  0  0  0  0  0  0  0
    2.6043   -1.5420    0.5958 H   0  0  0  0  0  0  0  0  0  0  0  0
    4.4063   -2.2796    2.8860 H   0  0  0  0  0  0  0  0  0  0  0  0
    2.6607   -2.1235    2.8973 H   0  0  0  0  0  0  0  0  0  0  0  0
    2.2897   -4.1853    1.9625 H   0  0  0  0  0  0  0  0  0  0  0  0
    4.7427   -4.9150    3.6158 H   0  0  0  0  0  0  0  0  0  0  0  0
    3.5503   -5.1559    5.4931 H   0  0  0  0  0  0  0  0  0  0  0  0
    2.9699   -3.6438    4.8467 H   0  0  0  0  0  0  0  0  0  0  0  0
    0.9381   -4.8285    5.4730 H   0  0  0  0  0  0  0  0  0  0  0  0
   -0.8280   -6.2538    4.8861 H   0  0  0  0  0  0  0  0  0  0  0  0
   -0.8661   -6.4079    3.1718 H   0  0  0  0  0  0  0  0  0  0  0  0
    0.0204   -8.5680    5.1279 H   0  0  0  0  0  0  0  0  0  0  0  0
   -1.8302   -9.5554    4.4082 H   0  0  0  0  0  0  0  0  0  0  0  0
    0.3651  -10.0970    3.1907 H   0  0  0  0  0  0  0  0  0  0  0  0
   -0.0926   -8.8782    2.0895 H   0  0  0  0  0  0  0  0  0  0  0  0
    2.3508   -8.8130    3.9454 H   0  0  0  0  0  0  0  0  0  0  0  0
    2.3783   -9.0157    2.2273 H   0  0  0  0  0  0  0  0  0  0  0  0
    1.7362   -7.2314    0.6522 H   0  0  0  0  0  0  0  0  0  0  0  0
    1.3219   -5.6469    1.1612 H   0  0  0  0  0  0  0  0  0  0  0  0
    0.1845   -6.9164    1.3910 H   0  0  0  0  0  0  0  0  0  0  0  0
    3.9173   -7.1038    3.6483 H   0  0  0  0  0  0  0  0  0  0  0  0
    5.2873   -6.9045    1.8043 H   0  0  0  0  0  0  0  0  0  0  0  0
    4.0227   -7.8548    1.2252 H   0  0  0  0  0  0  0  0  0  0  0  0
    4.7213   -6.0830   -0.3664 H   0  0  0  0  0  0  0  0  0  0  0  0
    3.0180   -5.9343   -0.0158 H   0  0  0  0  0  0  0  0  0  0  0  0
    6.1474   -4.8764    2.0372 H   0  0  0  0  0  0  0  0  0  0  0  0
    6.0597   -3.2156    1.5337 H   0  0  0  0  0  0  0  0  0  0  0  0
    6.3902   -4.4769    0.3701 H   0  0  0  0  0  0  0  0  0  0  0  0
  1  2  1  0
  1 24  1  0
  1 25  1  0
  1 26  1  0
  2  3  1  0
  2  4  1  0
  2 27  1  1
  3 28  1  0
  4 22  1  0
  4  5  1  0
  4 29  1  6
  5  6  1  0
  5 30  1  0
  5 31  1  0
  6  7  1  0
  6 32  1  0
  6 33  1  0
  7 22  1  0
  7  8  1  0
  7 34  1  6
  8 19  1  0
  8  9  1  0
  8 35  1  1
  9 10  1  0
  9 36  1  0
  9 37  1  0
 10 11  2  0
 10 38  1  0
 11 17  1  0
 11 12  1  0
 12 13  1  0
 12 39  1  0
 12 40  1  0
 13 14  1  0
 13 15  1  0
 13 41  1  1
 14 42  1  0
 15 16  1  0
 15 43  1  0
 15 44  1  0
 16 17  1  0
 16 45  1  0
 16 46  1  0
 17 18  1  6
 17 19  1  0
 18 47  1  0
 18 48  1  0
 18 49  1  0
 19 20  1  0
 19 50  1  1
 20 21  1  0
 20 51  1  0
 20 52  1  0
 21 22  1  0
 21 53  1  0
 21 54  1  0
 22 23  1  1
 23 55  1  0
 23 56  1  0
 23 57  1  0
M  END
>  <i_m_ct_stereo_status>  (204) 
1

>  <s_m_source_file>  (204) 
/var/tmp/pbs.5076255.sched01/tmp9n4xeji_/82rcfztp6i.sdf

>  <i_m_source_file_index>  (204) 
7

>  <i_lp_mmshare_version>  (204) 
48012

>  <i_f3d_flags>  (204) 
0

>  <s_epik_input>  (204) 
W0NIM11bQ0BIXShbT0hdKVtDQEhdKFtDSDJdW0NIMl0xKVtDQF0oW0NIM10pKFtDSDJdW0NIMl1bQ0BASF0yMylbQ0BIXTFbQ0BIXTJbQ0gyXVtDSF09QyhbQ0BAXTM0W0NIM10pW0NIMl1bQ0BASF0oW09IXSlbQ0gyXVtDSDJdNA==

>  <s_epik_cmdline>  (204) 
J2VwaWtfcHl0aG9uJywgJy1waHQnLCAnMi4wJywgJy1waCcsICc3LjAnLCAnLXRuJywgJzgnLCAnLW1hJywgJzIwMCcsICctaW1hZScsICc8aW5maWxlLm1hZT4nLCAnLW9tYWUnLCAnPG91dGZpbGUubWFlPic=

>  <r_lp_tautomer_probability>  (204) 
1

>  <r_epik_Ionization_Penalty>  (204) 
2.18359e-06

>  <r_epik_Ionization_Penalty_Charging>  (204) 
0

>  <r_epik_Ionization_Penalty_Neutral>  (204) 
2.18359e-06

>  <r_epik_State_Penalty>  (204) 
-0

>  <r_epik_Charging_Adjusted_Penalty>  (204) 
0

>  <i_epik_Tot_Q>  (204) 
0

>  <i_epik_Tot_abs_Q>  (204) 
0

>  <s_lp_Force_Field>  (204) 
OPLS3e

>  <r_lp_Energy>  (204) 
41.3188

>  <b_lp_Chiralities_Consistent>  (204) 
1

>  <s_lp_Variant>  (204) 
62:0-1

>  <s_i_glide_gridfile>  (204) 
pfpi4k_grid

>  <i_i_glide_lignum>  (204) 
7

>  <i_i_glide_rotatable_bonds>  (204) 
3

>  <r_i_docking_score>  (204) 
-3.96679

>  <r_i_glide_ligand_efficiency>  (204) 
-0.172469

>  <r_i_glide_ligand_efficiency_sa>  (204) 
-0.490479

>  <r_i_glide_ligand_efficiency_ln>  (204) 
-0.959205

>  <r_i_glide_gscore>  (204) 
-3.96679

>  <r_i_glide_lipo>  (204) 
-0.250101

>  <r_i_glide_hbond>  (204) 
-0.456

>  <r_i_glide_metal>  (204) 
-0

>  <r_i_glide_rewards>  (204) 
-1.23754

>  <r_i_glide_evdw>  (204) 
-24.0603

>  <r_i_glide_ecoul>  (204) 
-6.69293

>  <r_i_glide_erotb>  (204) 
0.183813

>  <r_i_glide_esite>  (204) 
0

>  <r_i_glide_emodel>  (204) 
-36.1087

>  <r_i_glide_energy>  (204) 
-30.7532

>  <r_i_glide_einternal>  (204) 
0.680494

>  <r_i_glide_intrahb_reward>  (204) 
-0

>  <i_i_glide_confnum>  (204) 
4

>  <i_i_glide_posenum>  (204) 
9

>  <r_i_glide_eff_state_penalty>  (204) 
0

>  <ligand_id>  (204) 
62

>  <original_smiles>  (204) 
CC(O)C1CCC2C3CC=C4CC(O)CCC4(C)C3CCC12C

>  <smiles>  (204) 
[H]OC1([H])C([H])([H])C2=C([H])C([H])([H])C3([H])C([H])(C([H])([H])C([H])([H])C4(C([H])([H])[H])C([H])(C([H])(O[H])C([H])([H])[H])C([H])([H])C([H])([H])C34[H])C2(C([H])([H])[H])C([H])([H])C1([H])[H]

$$$$
62:0:1
     RDKit          3D

 57 60  0  0  1  0  0  0  0  0999 V2000
   -1.0010   -9.1936    2.4417 C   0  0  0  0  0  0  0  0  0  0  0  0
   -0.1236   -8.1489    3.1280 C   0  0  2  0  0  0  0  0  0  0  0  0
   -1.0062   -7.0863    3.4553 O   0  0  0  0  0  0  0  0  0  0  0  0
    1.1036   -7.6466    2.3016 C   0  0  2  0  0  0  0  0  0  0  0  0
    2.0622   -8.7735    1.8146 C   0  0  0  0  0  0  0  0  0  0  0  0
    3.5106   -8.2503    1.9656 C   0  0  0  0  0  0  0  0  0  0  0  0
    3.3127   -6.7439    2.1876 C   0  0  2  0  0  0  0  0  0  0  0  0
    4.4471   -5.8994    2.8143 C   0  0  1  0  0  0  0  0  0  0  0  0
    5.8139   -6.0219    2.1111 C   0  0  0  0  0  0  0  0  0  0  0  0
    5.9336   -5.1323    0.8946 C   0  0  0  0  0  0  0  0  0  0  0  0
    5.1200   -4.0788    0.6235 C   0  0  0  0  0  0  0  0  0  0  0  0
    5.3265   -3.2621   -0.6323 C   0  0  0  0  0  0  0  0  0  0  0  0
    5.4161   -1.7533   -0.3137 C   0  0  1  0  0  0  0  0  0  0  0  0
    5.4163   -1.0473   -1.5240 O   0  0  0  0  0  0  0  0  0  0  0  0
    4.2686   -1.2381    0.5737 C   0  0  0  0  0  0  0  0  0  0  0  0
    4.1772   -2.0915    1.8508 C   0  0  0  0  0  0  0  0  0  0  0  0
    3.9766   -3.6143    1.5461 C   0  0  1  0  0  0  0  0  0  0  0  0
    2.6560   -3.7213    0.7502 C   0  0  0  0  0  0  0  0  0  0  0  0
    3.9592   -4.4130    2.9023 C   0  0  1  0  0  0  0  0  0  0  0  0
    2.6214   -4.2819    3.6805 C   0  0  0  0  0  0  0  0  0  0  0  0
    1.5080   -5.2139    3.1674 C   0  0  0  0  0  0  0  0  0  0  0  0
    2.0283   -6.6630    3.0561 C   0  0  1  0  0  0  0  0  0  0  0  0
    2.2678   -7.1896    4.5195 C   0  0  0  0  0  0  0  0  0  0  0  0
   -0.4119  -10.0781    2.2037 H   0  0  0  0  0  0  0  0  0  0  0  0
   -1.4485   -8.8018    1.5278 H   0  0  0  0  0  0  0  0  0  0  0  0
   -1.8002   -9.5128    3.1268 H   0  0  0  0  0  0  0  0  0  0  0  0
    0.2254   -8.6239    4.0429 H   0  0  0  0  0  0  0  0  0  0  0  0
   -1.5352   -7.3751    4.1968 H   0  0  0  0  0  0  0  0  0  0  0  0
    0.7213   -7.1355    1.4149 H   0  0  0  0  0  0  0  0  0  0  0  0
    1.9186   -9.6765    2.4068 H   0  0  0  0  0  0  0  0  0  0  0  0
    1.8240   -9.0339    0.7758 H   0  0  0  0  0  0  0  0  0  0  0  0
    4.0039   -8.7458    2.8093 H   0  0  0  0  0  0  0  0  0  0  0  0
    4.1013   -8.4727    1.0738 H   0  0  0  0  0  0  0  0  0  0  0  0
    3.1379   -6.3524    1.1754 H   0  0  0  0  0  0  0  0  0  0  0  0
    4.6515   -6.2770    3.8198 H   0  0  0  0  0  0  0  0  0  0  0  0
    6.6088   -5.7448    2.8092 H   0  0  0  0  0  0  0  0  0  0  0  0
    6.0149   -7.0637    1.8441 H   0  0  0  0  0  0  0  0  0  0  0  0
    6.7207   -5.4197    0.1994 H   0  0  0  0  0  0  0  0  0  0  0  0
    6.2016   -3.6060   -1.1933 H   0  0  0  0  0  0  0  0  0  0  0  0
    4.4876   -3.4729   -1.2907 H   0  0  0  0  0  0  0  0  0  0  0  0
    6.3534   -1.5620    0.2074 H   0  0  0  0  0  0  0  0  0  0  0  0
    5.0171   -0.1872   -1.3688 H   0  0  0  0  0  0  0  0  0  0  0  0
    4.3938   -0.1784    0.8224 H   0  0  0  0  0  0  0  0  0  0  0  0
    3.3236   -1.2508    0.0257 H   0  0  0  0  0  0  0  0  0  0  0  0
    5.0687   -1.9102    2.4629 H   0  0  0  0  0  0  0  0  0  0  0  0
    3.3518   -1.7219    2.4541 H   0  0  0  0  0  0  0  0  0  0  0  0
    1.8388   -3.2653    1.2932 H   0  0  0  0  0  0  0  0  0  0  0  0
    2.3775   -4.7405    0.5443 H   0  0  0  0  0  0  0  0  0  0  0  0
    2.6679   -3.2226   -0.2082 H   0  0  0  0  0  0  0  0  0  0  0  0
    4.7107   -3.9511    3.5416 H   0  0  0  0  0  0  0  0  0  0  0  0
    2.8124   -4.5018    4.7261 H   0  0  0  0  0  0  0  0  0  0  0  0
    2.2770   -3.2580    3.7010 H   0  0  0  0  0  0  0  0  0  0  0  0
    0.6844   -5.1703    3.8824 H   0  0  0  0  0  0  0  0  0  0  0  0
    1.1199   -4.8913    2.2003 H   0  0  0  0  0  0  0  0  0  0  0  0
    3.0522   -6.6443    5.0585 H   0  0  0  0  0  0  0  0  0  0  0  0
    2.5512   -8.2494    4.5629 H   0  0  0  0  0  0  0  0  0  0  0  0
    1.3537   -7.1093    5.1252 H   0  0  0  0  0  0  0  0  0  0  0  0
  1  2  1  0
  1 24  1  0
  1 25  1  0
  1 26  1  0
  2  3  1  0
  2  4  1  0
  2 27  1  1
  3 28  1  0
  4 22  1  0
  4  5  1  0
  4 29  1  6
  5  6  1  0
  5 30  1  0
  5 31  1  0
  6  7  1  0
  6 32  1  0
  6 33  1  0
  7 22  1  0
  7  8  1  0
  7 34  1  6
  8 19  1  0
  8  9  1  0
  8 35  1  1
  9 10  1  0
  9 36  1  0
  9 37  1  0
 10 11  2  0
 10 38  1  0
 11 17  1  0
 11 12  1  0
 12 13  1  0
 12 39  1  0
 12 40  1  0
 13 14  1  0
 13 15  1  0
 13 41  1  1
 14 42  1  0
 15 16  1  0
 15 43  1  0
 15 44  1  0
 16 17  1  0
 16 45  1  0
 16 46  1  0
 17 18  1  6
 17 19  1  0
 18 47  1  0
 18 48  1  0
 18 49  1  0
 19 20  1  0
 19 50  1  1
 20 21  1  0
 20 51  1  0
 20 52  1  0
 21 22  1  0
 21 53  1  0
 21 54  1  0
 22 23  1  1
 23 55  1  0
 23 56  1  0
 23 57  1  0
M  END
>  <i_m_ct_stereo_status>  (205) 
1

>  <s_m_source_file>  (205) 
/var/tmp/pbs.5076255.sched01/tmp9n4xeji_/82rcfztp6i.sdf

>  <i_m_source_file_index>  (205) 
7

>  <i_lp_mmshare_version>  (205) 
48012

>  <i_f3d_flags>  (205) 
0

>  <s_epik_input>  (205) 
W0NIM11bQ0BIXShbT0hdKVtDQEhdKFtDSDJdW0NIMl0xKVtDQF0oW0NIM10pKFtDSDJdW0NIMl1bQ0BASF0yMylbQ0BIXTFbQ0BIXTJbQ0gyXVtDSF09QyhbQ0BAXTM0W0NIM10pW0NIMl1bQ0BASF0oW09IXSlbQ0gyXVtDSDJdNA==

>  <s_epik_cmdline>  (205) 
J2VwaWtfcHl0aG9uJywgJy1waHQnLCAnMi4wJywgJy1waCcsICc3LjAnLCAnLXRuJywgJzgnLCAnLW1hJywgJzIwMCcsICctaW1hZScsICc8aW5maWxlLm1hZT4nLCAnLW9tYWUnLCAnPG91dGZpbGUubWFlPic=

>  <r_lp_tautomer_probability>  (205) 
1

>  <r_epik_Ionization_Penalty>  (205) 
2.18359e-06

>  <r_epik_Ionization_Penalty_Charging>  (205) 
0

>  <r_epik_Ionization_Penalty_Neutral>  (205) 
2.18359e-06

>  <r_epik_State_Penalty>  (205) 
-0

>  <r_epik_Charging_Adjusted_Penalty>  (205) 
0

>  <i_epik_Tot_Q>  (205) 
0

>  <i_epik_Tot_abs_Q>  (205) 
0

>  <s_lp_Force_Field>  (205) 
OPLS3e

>  <r_lp_Energy>  (205) 
41.3188

>  <b_lp_Chiralities_Consistent>  (205) 
1

>  <s_lp_Variant>  (205) 
62:0-1

>  <s_i_glide_gridfile>  (205) 
pfpi4k_grid

>  <i_i_glide_lignum>  (205) 
7

>  <i_i_glide_rotatable_bonds>  (205) 
3

>  <r_i_docking_score>  (205) 
-3.61283

>  <r_i_glide_ligand_efficiency>  (205) 
-0.15708

>  <r_i_glide_ligand_efficiency_sa>  (205) 
-0.446714

>  <r_i_glide_ligand_efficiency_ln>  (205) 
-0.873616

>  <r_i_glide_gscore>  (205) 
-3.61283

>  <r_i_glide_lipo>  (205) 
-0.435595

>  <r_i_glide_hbond>  (205) 
-0.218334

>  <r_i_glide_metal>  (205) 
-0

>  <r_i_glide_rewards>  (205) 
-1.23754

>  <r_i_glide_evdw>  (205) 
-25.2987

>  <r_i_glide_ecoul>  (205) 
-4.26827

>  <r_i_glide_erotb>  (205) 
0.183813

>  <r_i_glide_esite>  (205) 
0

>  <r_i_glide_emodel>  (205) 
-34.9379

>  <r_i_glide_energy>  (205) 
-29.5669

>  <r_i_glide_einternal>  (205) 
1.32694

>  <r_i_glide_intrahb_reward>  (205) 
-0

>  <i_i_glide_confnum>  (205) 
4

>  <i_i_glide_posenum>  (205) 
25

>  <r_i_glide_eff_state_penalty>  (205) 
0

>  <ligand_id>  (205) 
62

>  <original_smiles>  (205) 
CC(O)C1CCC2C3CC=C4CC(O)CCC4(C)C3CCC12C

>  <smiles>  (205) 
[H]OC1([H])C([H])([H])C2=C([H])C([H])([H])C3([H])C([H])(C([H])([H])C([H])([H])C4(C([H])([H])[H])C([H])(C([H])(O[H])C([H])([H])[H])C([H])([H])C([H])([H])C34[H])C2(C([H])([H])[H])C([H])([H])C1([H])[H]

$$$$
62:0:2
     RDKit          3D

 57 60  0  0  1  0  0  0  0  0999 V2000
   -1.0580   -9.2317    2.4359 C   0  0  0  0  0  0  0  0  0  0  0  0
   -0.1826   -8.1843    3.1185 C   0  0  2  0  0  0  0  0  0  0  0  0
   -1.0520   -7.0852    3.3561 O   0  0  0  0  0  0  0  0  0  0  0  0
    1.0996   -7.7538    2.3394 C   0  0  2  0  0  0  0  0  0  0  0  0
    2.0355   -8.9295    1.9313 C   0  0  0  0  0  0  0  0  0  0  0  0
    3.4916   -8.4538    2.1319 C   0  0  0  0  0  0  0  0  0  0  0  0
    3.3390   -6.9333    2.2960 C   0  0  2  0  0  0  0  0  0  0  0  0
    4.4769   -6.1029    2.9377 C   0  0  1  0  0  0  0  0  0  0  0  0
    5.8676   -6.3007    2.3041 C   0  0  0  0  0  0  0  0  0  0  0  0
    6.0807   -5.4682    1.0643 C   0  0  0  0  0  0  0  0  0  0  0  0
    5.3103   -4.3894    0.7155 C   0  0  0  0  0  0  0  0  0  0  0  0
    5.6084   -3.6282   -0.5563 C   0  0  0  0  0  0  0  0  0  0  0  0
    5.7409   -2.1150   -0.2836 C   0  0  1  0  0  0  0  0  0  0  0  0
    5.8170   -1.4540   -1.5197 O   0  0  0  0  0  0  0  0  0  0  0  0
    4.5793   -1.5196    0.5337 C   0  0  0  0  0  0  0  0  0  0  0  0
    4.3969   -2.3283    1.8328 C   0  0  0  0  0  0  0  0  0  0  0  0
    4.1551   -3.8535    1.5704 C   0  0  1  0  0  0  0  0  0  0  0  0
    2.8672   -3.9413    0.7175 C   0  0  0  0  0  0  0  0  0  0  0  0
    4.0405   -4.6003    2.9474 C   0  0  1  0  0  0  0  0  0  0  0  0
    2.6805   -4.3914    3.6575 C   0  0  0  0  0  0  0  0  0  0  0  0
    1.5559   -5.3043    3.1342 C   0  0  0  0  0  0  0  0  0  0  0  0
    2.0238   -6.7772    3.1053 C   0  0  1  0  0  0  0  0  0  0  0  0
    2.1760   -7.2542    4.5919 C   0  0  0  0  0  0  0  0  0  0  0  0
   -0.4866  -10.1431    2.2740 H   0  0  0  0  0  0  0  0  0  0  0  0
   -1.4467   -8.8750    1.4836 H   0  0  0  0  0  0  0  0  0  0  0  0
   -1.9009   -9.4937    3.0922 H   0  0  0  0  0  0  0  0  0  0  0  0
    0.1015   -8.6153    4.0746 H   0  0  0  0  0  0  0  0  0  0  0  0
   -1.6199   -7.3142    4.0860 H   0  0  0  0  0  0  0  0  0  0  0  0
    0.7802   -7.2612    1.4176 H   0  0  0  0  0  0  0  0  0  0  0  0
    1.8327   -9.8057    2.5447 H   0  0  0  0  0  0  0  0  0  0  0  0
    1.8389   -9.2047    0.8858 H   0  0  0  0  0  0  0  0  0  0  0  0
    3.9288   -8.9366    3.0129 H   0  0  0  0  0  0  0  0  0  0  0  0
    4.1108   -8.7305    1.2779 H   0  0  0  0  0  0  0  0  0  0  0  0
    3.2229   -6.5667    1.2626 H   0  0  0  0  0  0  0  0  0  0  0  0
    4.6206   -6.4525    3.9638 H   0  0  0  0  0  0  0  0  0  0  0  0
    6.6439   -6.0304    3.0269 H   0  0  0  0  0  0  0  0  0  0  0  0
    6.0453   -7.3597    2.0809 H   0  0  0  0  0  0  0  0  0  0  0  0
    6.8875   -5.7981    0.4220 H   0  0  0  0  0  0  0  0  0  0  0  0
    6.5006   -4.0126   -1.0562 H   0  0  0  0  0  0  0  0  0  0  0  0
    4.7958   -3.8369   -1.2473 H   0  0  0  0  0  0  0  0  0  0  0  0
    6.6693   -1.9439    0.2679 H   0  0  0  0  0  0  0  0  0  0  0  0
    4.9753   -1.5615   -1.9651 H   0  0  0  0  0  0  0  0  0  0  0  0
    4.7427   -0.4575    0.7489 H   0  0  0  0  0  0  0  0  0  0  0  0
    3.6594   -1.5159   -0.0553 H   0  0  0  0  0  0  0  0  0  0  0  0
    5.2655   -2.1624    2.4760 H   0  0  0  0  0  0  0  0  0  0  0  0
    3.5616   -1.9061    2.3822 H   0  0  0  0  0  0  0  0  0  0  0  0
    2.0392   -3.4359    1.1961 H   0  0  0  0  0  0  0  0  0  0  0  0
    2.5511   -4.9547    0.5335 H   0  0  0  0  0  0  0  0  0  0  0  0
    2.9372   -3.4764   -0.2606 H   0  0  0  0  0  0  0  0  0  0  0  0
    4.7744   -4.1454    3.6011 H   0  0  0  0  0  0  0  0  0  0  0  0
    2.8126   -4.5794    4.7192 H   0  0  0  0  0  0  0  0  0  0  0  0
    2.3665   -3.3591    3.6229 H   0  0  0  0  0  0  0  0  0  0  0  0
    0.7025   -5.2105    3.8093 H   0  0  0  0  0  0  0  0  0  0  0  0
    1.2200   -5.0012    2.1406 H   0  0  0  0  0  0  0  0  0  0  0  0
    2.9550   -6.7213    5.1406 H   0  0  0  0  0  0  0  0  0  0  0  0
    2.4127   -8.3156    4.6890 H   0  0  0  0  0  0  0  0  0  0  0  0
    1.2432   -7.1211    5.1473 H   0  0  0  0  0  0  0  0  0  0  0  0
  1  2  1  0
  1 24  1  0
  1 25  1  0
  1 26  1  0
  2  3  1  0
  2  4  1  0
  2 27  1  1
  3 28  1  0
  4 22  1  0
  4  5  1  0
  4 29  1  6
  5  6  1  0
  5 30  1  0
  5 31  1  0
  6  7  1  0
  6 32  1  0
  6 33  1  0
  7 22  1  0
  7  8  1  0
  7 34  1  6
  8 19  1  0
  8  9  1  0
  8 35  1  1
  9 10  1  0
  9 36  1  0
  9 37  1  0
 10 11  2  0
 10 38  1  0
 11 17  1  0
 11 12  1  0
 12 13  1  0
 12 39  1  0
 12 40  1  0
 13 14  1  0
 13 15  1  0
 13 41  1  1
 14 42  1  0
 15 16  1  0
 15 43  1  0
 15 44  1  0
 16 17  1  0
 16 45  1  0
 16 46  1  0
 17 18  1  6
 17 19  1  0
 18 47  1  0
 18 48  1  0
 18 49  1  0
 19 20  1  0
 19 50  1  1
 20 21  1  0
 20 51  1  0
 20 52  1  0
 21 22  1  0
 21 53  1  0
 21 54  1  0
 22 23  1  1
 23 55  1  0
 23 56  1  0
 23 57  1  0
M  END
>  <i_m_ct_stereo_status>  (206) 
1

>  <s_m_source_file>  (206) 
/var/tmp/pbs.5076255.sched01/tmp9n4xeji_/82rcfztp6i.sdf

>  <i_m_source_file_index>  (206) 
7

>  <i_lp_mmshare_version>  (206) 
48012

>  <i_f3d_flags>  (206) 
0

>  <s_epik_input>  (206) 
W0NIM11bQ0BIXShbT0hdKVtDQEhdKFtDSDJdW0NIMl0xKVtDQF0oW0NIM10pKFtDSDJdW0NIMl1bQ0BASF0yMylbQ0BIXTFbQ0BIXTJbQ0gyXVtDSF09QyhbQ0BAXTM0W0NIM10pW0NIMl1bQ0BASF0oW09IXSlbQ0gyXVtDSDJdNA==

>  <s_epik_cmdline>  (206) 
J2VwaWtfcHl0aG9uJywgJy1waHQnLCAnMi4wJywgJy1waCcsICc3LjAnLCAnLXRuJywgJzgnLCAnLW1hJywgJzIwMCcsICctaW1hZScsICc8aW5maWxlLm1hZT4nLCAnLW9tYWUnLCAnPG91dGZpbGUubWFlPic=

>  <r_lp_tautomer_probability>  (206) 
1

>  <r_epik_Ionization_Penalty>  (206) 
2.18359e-06

>  <r_epik_Ionization_Penalty_Charging>  (206) 
0

>  <r_epik_Ionization_Penalty_Neutral>  (206) 
2.18359e-06

>  <r_epik_State_Penalty>  (206) 
-0

>  <r_epik_Charging_Adjusted_Penalty>  (206) 
0

>  <i_epik_Tot_Q>  (206) 
0

>  <i_epik_Tot_abs_Q>  (206) 
0

>  <s_lp_Force_Field>  (206) 
OPLS3e

>  <r_lp_Energy>  (206) 
41.3188

>  <b_lp_Chiralities_Consistent>  (206) 
1

>  <s_lp_Variant>  (206) 
62:0-1

>  <s_i_glide_gridfile>  (206) 
pfpi4k_grid

>  <i_i_glide_lignum>  (206) 
7

>  <i_i_glide_rotatable_bonds>  (206) 
3

>  <r_i_docking_score>  (206) 
-3.60428

>  <r_i_glide_ligand_efficiency>  (206) 
-0.156708

>  <r_i_glide_ligand_efficiency_sa>  (206) 
-0.445657

>  <r_i_glide_ligand_efficiency_ln>  (206) 
-0.871549

>  <r_i_glide_gscore>  (206) 
-3.60428

>  <r_i_glide_lipo>  (206) 
-0.498526

>  <r_i_glide_hbond>  (206) 
-0.183923

>  <r_i_glide_metal>  (206) 
-0

>  <r_i_glide_rewards>  (206) 
-1.23754

>  <r_i_glide_evdw>  (206) 
-25.0005

>  <r_i_glide_ecoul>  (206) 
-4.12055

>  <r_i_glide_erotb>  (206) 
0.183813

>  <r_i_glide_esite>  (206) 
0

>  <r_i_glide_emodel>  (206) 
-34.8961

>  <r_i_glide_energy>  (206) 
-29.121

>  <r_i_glide_einternal>  (206) 
0.411074

>  <r_i_glide_intrahb_reward>  (206) 
-0

>  <i_i_glide_confnum>  (206) 
1

>  <i_i_glide_posenum>  (206) 
36

>  <r_i_glide_eff_state_penalty>  (206) 
0

>  <ligand_id>  (206) 
62

>  <original_smiles>  (206) 
CC(O)C1CCC2C3CC=C4CC(O)CCC4(C)C3CCC12C

>  <smiles>  (206) 
[H]OC1([H])C([H])([H])C2=C([H])C([H])([H])C3([H])C([H])(C([H])([H])C([H])([H])C4(C([H])([H])[H])C([H])(C([H])(O[H])C([H])([H])[H])C([H])([H])C([H])([H])C34[H])C2(C([H])([H])[H])C([H])([H])C1([H])[H]

$$$$
63:0:0
     RDKit          3D

 53 57  0  0  1  0  0  0  0  0999 V2000
    5.0395   -0.3393    1.2924 C   0  0  0  0  0  0  0  0  0  0  0  0
    4.5406   -1.5494    1.0882 C   0  0  0  0  0  0  0  0  0  0  0  0
    4.3543   -2.5846    2.2095 C   0  0  1  0  0  0  0  0  0  0  0  0
    2.9287   -2.7417    2.8192 C   0  0  1  0  0  0  0  0  0  0  0  0
    1.8765   -2.1872    2.0580 O   0  0  0  0  0  0  0  0  0  0  0  0
    2.6933   -4.2638    2.9590 C   0  0  1  0  0  0  0  0  0  0  0  0
    3.2736   -4.7627    4.3161 C   0  0  0  0  0  0  0  0  0  0  0  0
    4.3474   -4.6165    4.8912 O   0  0  0  0  0  0  0  0  0  0  0  0
    1.9566   -5.4960    4.6902 C   0  0  2  0  0  0  0  0  0  0  0  0
    1.4286   -5.1176    6.0785 C   0  0  0  0  0  0  0  0  0  0  0  0
    1.7719   -6.9324    4.1347 C   0  0  0  0  0  0  0  0  0  0  0  0
    0.9163   -6.3079    2.9954 C   0  0  0  0  0  0  0  0  0  0  0  0
    0.1258   -6.7243    2.1631 O   0  0  0  0  0  0  0  0  0  0  0  0
    1.3362   -4.8711    3.4252 C   0  0  2  0  0  0  0  0  0  0  0  0
    3.4562   -4.8666    1.7770 C   0  0  1  0  0  0  0  0  0  0  0  0
    2.5661   -5.0060    0.6850 O   0  0  0  0  0  0  0  0  0  0  0  0
    4.6800   -3.9515    1.5596 C   0  0  1  0  0  0  0  0  0  0  0  0
    5.2285   -3.6097    0.1512 C   0  0  1  0  0  0  0  0  0  0  0  0
    6.7696   -3.4715    0.3281 C   0  0  0  0  0  0  0  0  0  0  0  0
    5.0535   -4.6160   -0.9582 C   0  0  0  0  0  0  0  0  0  0  0  0
    5.0199   -4.2228   -2.2396 C   0  0  0  0  0  0  0  0  0  0  0  0
    5.0421   -2.7804   -2.7272 C   0  0  1  0  0  0  0  0  0  0  0  0
    3.8666   -2.5652   -3.7075 C   0  0  0  0  0  0  0  0  0  0  0  0
    5.1540   -1.7458   -1.5536 C   0  0  1  0  0  0  0  0  0  0  0  0
    4.6085   -0.5226   -1.9819 O   0  0  0  0  0  0  0  0  0  0  0  0
    4.5172   -2.2918   -0.2427 C   0  0  2  0  0  0  0  0  0  0  0  0
    3.1676   -2.5252   -0.5708 O   0  0  0  0  0  0  0  0  0  0  0  0
    5.3679    0.2757    0.4695 H   0  0  0  0  0  0  0  0  0  0  0  0
    5.1957    0.0414    2.2994 H   0  0  0  0  0  0  0  0  0  0  0  0
    5.0838   -2.3692    3.0086 H   0  0  0  0  0  0  0  0  0  0  0  0
    2.9039   -2.2354    3.7813 H   0  0  0  0  0  0  0  0  0  0  0  0
    2.0631   -1.2918    1.8288 H   0  0  0  0  0  0  0  0  0  0  0  0
    0.3633   -5.3456    6.1748 H   0  0  0  0  0  0  0  0  0  0  0  0
    1.5519   -4.0539    6.3015 H   0  0  0  0  0  0  0  0  0  0  0  0
    1.9418   -5.6706    6.8726 H   0  0  0  0  0  0  0  0  0  0  0  0
    2.7308   -7.3721    3.8540 H   0  0  0  0  0  0  0  0  0  0  0  0
    1.2551   -7.5880    4.8372 H   0  0  0  0  0  0  0  0  0  0  0  0
    0.5462   -4.1618    3.6601 H   0  0  0  0  0  0  0  0  0  0  0  0
    3.8139   -5.8718    1.9849 H   0  0  0  0  0  0  0  0  0  0  0  0
    3.0541   -5.1207   -0.1185 H   0  0  0  0  0  0  0  0  0  0  0  0
    5.4773   -4.3922    2.1651 H   0  0  0  0  0  0  0  0  0  0  0  0
    7.0410   -2.6918    1.0425 H   0  0  0  0  0  0  0  0  0  0  0  0
    7.2903   -3.2689   -0.6080 H   0  0  0  0  0  0  0  0  0  0  0  0
    7.1963   -4.4064    0.6917 H   0  0  0  0  0  0  0  0  0  0  0  0
    5.0294   -5.6647   -0.6850 H   0  0  0  0  0  0  0  0  0  0  0  0
    4.9676   -4.9553   -3.0275 H   0  0  0  0  0  0  0  0  0  0  0  0
    5.9514   -2.6942   -3.3167 H   0  0  0  0  0  0  0  0  0  0  0  0
    3.9083   -3.2965   -4.5109 H   0  0  0  0  0  0  0  0  0  0  0  0
    3.8893   -1.5803   -4.1782 H   0  0  0  0  0  0  0  0  0  0  0  0
    2.8985   -2.6899   -3.2218 H   0  0  0  0  0  0  0  0  0  0  0  0
    6.2130   -1.5455   -1.3853 H   0  0  0  0  0  0  0  0  0  0  0  0
    3.6743   -0.6190   -2.0360 H   0  0  0  0  0  0  0  0  0  0  0  0
    2.6872   -1.7091   -0.6137 H   0  0  0  0  0  0  0  0  0  0  0  0
  1  2  2  0
  1 28  1  0
  1 29  1  0
  2 26  1  0
  2  3  1  0
  3 17  1  0
  3  4  1  0
  3 30  1  1
  4  5  1  0
  4  6  1  0
  4 31  1  1
  5 32  1  0
  6 14  1  0
  6  7  1  1
  6 15  1  0
  7  8  2  0
  7  9  1  0
  9 14  1  0
  9 10  1  1
  9 11  1  0
 10 33  1  0
 10 34  1  0
 10 35  1  0
 11 12  1  0
 11 36  1  0
 11 37  1  0
 12 13  2  0
 12 14  1  0
 14 38  1  1
 15 16  1  0
 15 17  1  0
 15 39  1  1
 16 40  1  0
 17 18  1  0
 17 41  1  1
 18 26  1  0
 18 19  1  1
 18 20  1  0
 19 42  1  0
 19 43  1  0
 19 44  1  0
 20 21  2  0
 20 45  1  0
 21 22  1  0
 21 46  1  0
 22 23  1  0
 22 24  1  0
 22 47  1  6
 23 48  1  0
 23 49  1  0
 23 50  1  0
 24 25  1  0
 24 26  1  0
 24 51  1  1
 25 52  1  0
 26 27  1  6
 27 53  1  0
M  END
>  <i_m_ct_stereo_status>  (207) 
1

>  <s_m_source_file>  (207) 
/var/tmp/pbs.5076255.sched01/tmp9n4xeji_/82rcfztp6i.sdf

>  <i_m_source_file_index>  (207) 
8

>  <i_lp_mmshare_version>  (207) 
48012

>  <i_f3d_flags>  (207) 
0

>  <s_epik_input>  (207) 
W0NIXTE9W0NIXVtDQEBIXShbQ0gzXSlbQ0BASF0oW09IXSlbQ0BdKFtPSF0pKEMyPVtDSDJdKVtDQEBdMShbQ0gzXSlbQ0BIXShbQ0BASF0zW09IXSlbQ0BASF0yW0NAQEhdKFtPSF0pW0NAQF0zNFtDQEBIXTVbQ0BAXShDND1PKShbQ0gzXSlbQ0gyXUM1PU8=

>  <s_epik_cmdline>  (207) 
J2VwaWtfcHl0aG9uJywgJy1waHQnLCAnMi4wJywgJy1waCcsICc3LjAnLCAnLXRuJywgJzgnLCAnLW1hJywgJzIwMCcsICctaW1hZScsICc8aW5maWxlLm1hZT4nLCAnLW9tYWUnLCAnPG91dGZpbGUubWFlPic=

>  <r_lp_tautomer_probability>  (207) 
1

>  <r_epik_Ionization_Penalty>  (207) 
5.66114e-07

>  <r_epik_Ionization_Penalty_Charging>  (207) 
0

>  <r_epik_Ionization_Penalty_Neutral>  (207) 
5.66114e-07

>  <r_epik_State_Penalty>  (207) 
-0

>  <r_epik_Charging_Adjusted_Penalty>  (207) 
0

>  <i_epik_Tot_Q>  (207) 
0

>  <i_epik_Tot_abs_Q>  (207) 
0

>  <s_lp_Force_Field>  (207) 
OPLS3e

>  <r_lp_Energy>  (207) 
44.0801

>  <b_lp_Chiralities_Consistent>  (207) 
1

>  <s_lp_Variant>  (207) 
63:0-1

>  <s_i_glide_gridfile>  (207) 
pfpi4k_grid

>  <i_i_glide_lignum>  (207) 
8

>  <i_i_glide_rotatable_bonds>  (207) 
4

>  <r_i_docking_score>  (207) 
-3.15775

>  <r_i_glide_ligand_efficiency>  (207) 
-0.116954

>  <r_i_glide_ligand_efficiency_sa>  (207) 
-0.350861

>  <r_i_glide_ligand_efficiency_ln>  (207) 
-0.735072

>  <r_i_glide_gscore>  (207) 
-3.15775

>  <r_i_glide_lipo>  (207) 
-0.741252

>  <r_i_glide_hbond>  (207) 
-0.0836085

>  <r_i_glide_metal>  (207) 
-0

>  <r_i_glide_rewards>  (207) 
-0.856176

>  <r_i_glide_evdw>  (207) 
-19.9803

>  <r_i_glide_ecoul>  (207) 
-2.89969

>  <r_i_glide_erotb>  (207) 
0

>  <r_i_glide_esite>  (207) 
-0.0427427

>  <r_i_glide_emodel>  (207) 
-27.1921

>  <r_i_glide_energy>  (207) 
-22.88

>  <r_i_glide_einternal>  (207) 
0.897317

>  <r_i_glide_intrahb_reward>  (207) 
-0

>  <i_i_glide_confnum>  (207) 
1

>  <i_i_glide_posenum>  (207) 
22

>  <r_i_glide_eff_state_penalty>  (207) 
0

>  <ligand_id>  (207) 
63

>  <original_smiles>  (207) 
C=C1C2C(O)C3(C(=O)C4(C)CC(=O)C43)C(O)C2C2(C)C=CC(C)C(O)C12O

>  <smiles>  (207) 
[H]OC1([H])C([H])(C([H])([H])[H])C([H])=C([H])C2(C([H])([H])[H])C1(O[H])C(=C([H])[H])C1([H])C([H])(O[H])C3(C(=O)C4(C([H])([H])[H])C([H])([H])C(=O)C43[H])C([H])(O[H])C12[H]

$$$$
63:0:1
     RDKit          3D

 53 57  0  0  1  0  0  0  0  0999 V2000
    5.4579   -0.3630    1.1210 C   0  0  0  0  0  0  0  0  0  0  0  0
    4.9940   -1.6126    0.8986 C   0  0  0  0  0  0  0  0  0  0  0  0
    5.1594   -2.7435    1.9066 C   0  0  1  0  0  0  0  0  0  0  0  0
    3.9827   -3.1114    2.8457 C   0  0  1  0  0  0  0  0  0  0  0  0
    2.7237   -2.5761    2.4609 O   0  0  0  0  0  0  0  0  0  0  0  0
    3.8959   -4.6501    2.8603 C   0  0  1  0  0  0  0  0  0  0  0  0
    4.8476   -5.2162    3.9631 C   0  0  0  0  0  0  0  0  0  0  0  0
    6.0256   -5.0364    4.2569 O   0  0  0  0  0  0  0  0  0  0  0  0
    3.7311   -6.0902    4.5782 C   0  0  2  0  0  0  0  0  0  0  0  0
    3.5641   -5.8932    6.0912 C   0  0  0  0  0  0  0  0  0  0  0  0
    3.5167   -7.4769    3.9278 C   0  0  0  0  0  0  0  0  0  0  0  0
    2.3545   -6.8515    3.1271 C   0  0  0  0  0  0  0  0  0  0  0  0
    1.4379   -7.2996    2.4354 O   0  0  0  0  0  0  0  0  0  0  0  0
    2.7478   -5.4227    3.5821 C   0  0  2  0  0  0  0  0  0  0  0  0
    4.3669   -5.0604    1.4621 C   0  0  1  0  0  0  0  0  0  0  0  0
    3.2297   -5.1604    0.6267 O   0  0  0  0  0  0  0  0  0  0  0  0
    5.4225   -4.0046    1.0503 C   0  0  1  0  0  0  0  0  0  0  0  0
    5.5582   -3.4754   -0.3997 C   0  0  1  0  0  0  0  0  0  0  0  0
    7.0813   -3.2183   -0.6140 C   0  0  0  0  0  0  0  0  0  0  0  0
    5.1478   -4.3620   -1.5372 C   0  0  0  0  0  0  0  0  0  0  0  0
    4.7743   -3.8727   -2.7367 C   0  0  0  0  0  0  0  0  0  0  0  0
    4.5754   -2.4080   -3.0485 C   0  0  1  0  0  0  0  0  0  0  0  0
    3.1605   -2.2305   -3.6521 C   0  0  0  0  0  0  0  0  0  0  0  0
    4.9344   -1.5032   -1.8279 C   0  0  1  0  0  0  0  0  0  0  0  0
    4.2684   -0.2850   -1.9799 O   0  0  0  0  0  0  0  0  0  0  0  0
    4.6788   -2.2060   -0.4515 C   0  0  2  0  0  0  0  0  0  0  0  0
    3.3059   -2.5182   -0.4549 O   0  0  0  0  0  0  0  0  0  0  0  0
    5.5244    0.3420    0.3149 H   0  0  0  0  0  0  0  0  0  0  0  0
    5.8352   -0.0869    2.0928 H   0  0  0  0  0  0  0  0  0  0  0  0
    6.0545   -2.5354    2.5205 H   0  0  0  0  0  0  0  0  0  0  0  0
    4.1681   -2.7027    3.8363 H   0  0  0  0  0  0  0  0  0  0  0  0
    2.0573   -2.9973    2.9844 H   0  0  0  0  0  0  0  0  0  0  0  0
    2.5806   -6.2306    6.4273 H   0  0  0  0  0  0  0  0  0  0  0  0
    3.6697   -4.8454    6.3941 H   0  0  0  0  0  0  0  0  0  0  0  0
    4.3080   -6.4650    6.6536 H   0  0  0  0  0  0  0  0  0  0  0  0
    4.3849   -7.7932    3.3514 H   0  0  0  0  0  0  0  0  0  0  0  0
    3.2418   -8.2451    4.6522 H   0  0  0  0  0  0  0  0  0  0  0  0
    1.9910   -4.8212    4.0801 H   0  0  0  0  0  0  0  0  0  0  0  0
    4.8354   -6.0417    1.4512 H   0  0  0  0  0  0  0  0  0  0  0  0
    3.4950   -5.2003   -0.2779 H   0  0  0  0  0  0  0  0  0  0  0  0
    6.3759   -4.4165    1.3798 H   0  0  0  0  0  0  0  0  0  0  0  0
    7.4870   -2.4844    0.0884 H   0  0  0  0  0  0  0  0  0  0  0  0
    7.3283   -2.8954   -1.6267 H   0  0  0  0  0  0  0  0  0  0  0  0
    7.6487   -4.1393   -0.4703 H   0  0  0  0  0  0  0  0  0  0  0  0
    5.2297   -5.4215   -1.3780 H   0  0  0  0  0  0  0  0  0  0  0  0
    4.5514   -4.5546   -3.5325 H   0  0  0  0  0  0  0  0  0  0  0  0
    5.2731   -2.1822   -3.8497 H   0  0  0  0  0  0  0  0  0  0  0  0
    3.0306   -2.8733   -4.5209 H   0  0  0  0  0  0  0  0  0  0  0  0
    2.9839   -1.2050   -3.9918 H   0  0  0  0  0  0  0  0  0  0  0  0
    2.3690   -2.4924   -2.9455 H   0  0  0  0  0  0  0  0  0  0  0  0
    5.9874   -1.2393   -1.9014 H   0  0  0  0  0  0  0  0  0  0  0  0
    4.4533    0.2563   -1.2277 H   0  0  0  0  0  0  0  0  0  0  0  0
    2.8045   -1.7207   -0.5579 H   0  0  0  0  0  0  0  0  0  0  0  0
  1  2  2  0
  1 28  1  0
  1 29  1  0
  2 26  1  0
  2  3  1  0
  3 17  1  0
  3  4  1  0
  3 30  1  1
  4  5  1  0
  4  6  1  0
  4 31  1  1
  5 32  1  0
  6 14  1  0
  6  7  1  1
  6 15  1  0
  7  8  2  0
  7  9  1  0
  9 14  1  0
  9 10  1  1
  9 11  1  0
 10 33  1  0
 10 34  1  0
 10 35  1  0
 11 12  1  0
 11 36  1  0
 11 37  1  0
 12 13  2  0
 12 14  1  0
 14 38  1  1
 15 16  1  0
 15 17  1  0
 15 39  1  1
 16 40  1  0
 17 18  1  0
 17 41  1  1
 18 26  1  0
 18 19  1  6
 18 20  1  0
 19 42  1  0
 19 43  1  0
 19 44  1  0
 20 21  2  0
 20 45  1  0
 21 22  1  0
 21 46  1  0
 22 23  1  0
 22 24  1  0
 22 47  1  6
 23 48  1  0
 23 49  1  0
 23 50  1  0
 24 25  1  0
 24 26  1  0
 24 51  1  6
 25 52  1  0
 26 27  1  1
 27 53  1  0
M  END
>  <i_m_ct_stereo_status>  (208) 
1

>  <s_m_source_file>  (208) 
/var/tmp/pbs.5076255.sched01/tmp9n4xeji_/82rcfztp6i.sdf

>  <i_m_source_file_index>  (208) 
8

>  <i_lp_mmshare_version>  (208) 
48012

>  <i_f3d_flags>  (208) 
0

>  <s_epik_input>  (208) 
W0NIXTE9W0NIXVtDQEBIXShbQ0gzXSlbQ0BASF0oW09IXSlbQ0BdKFtPSF0pKEMyPVtDSDJdKVtDQEBdMShbQ0gzXSlbQ0BIXShbQ0BASF0zW09IXSlbQ0BASF0yW0NAQEhdKFtPSF0pW0NAQF0zNFtDQEBIXTVbQ0BAXShDND1PKShbQ0gzXSlbQ0gyXUM1PU8=

>  <s_epik_cmdline>  (208) 
J2VwaWtfcHl0aG9uJywgJy1waHQnLCAnMi4wJywgJy1waCcsICc3LjAnLCAnLXRuJywgJzgnLCAnLW1hJywgJzIwMCcsICctaW1hZScsICc8aW5maWxlLm1hZT4nLCAnLW9tYWUnLCAnPG91dGZpbGUubWFlPic=

>  <r_lp_tautomer_probability>  (208) 
1

>  <r_epik_Ionization_Penalty>  (208) 
5.66114e-07

>  <r_epik_Ionization_Penalty_Charging>  (208) 
0

>  <r_epik_Ionization_Penalty_Neutral>  (208) 
5.66114e-07

>  <r_epik_State_Penalty>  (208) 
-0

>  <r_epik_Charging_Adjusted_Penalty>  (208) 
0

>  <i_epik_Tot_Q>  (208) 
0

>  <i_epik_Tot_abs_Q>  (208) 
0

>  <s_lp_Force_Field>  (208) 
OPLS3e

>  <r_lp_Energy>  (208) 
44.0801

>  <b_lp_Chiralities_Consistent>  (208) 
1

>  <s_lp_Variant>  (208) 
63:0-1

>  <s_i_glide_gridfile>  (208) 
pfpi4k_grid

>  <i_i_glide_lignum>  (208) 
8

>  <i_i_glide_rotatable_bonds>  (208) 
4

>  <r_i_docking_score>  (208) 
-2.85793

>  <r_i_glide_ligand_efficiency>  (208) 
-0.105849

>  <r_i_glide_ligand_efficiency_sa>  (208) 
-0.317548

>  <r_i_glide_ligand_efficiency_ln>  (208) 
-0.66528

>  <r_i_glide_gscore>  (208) 
-2.85793

>  <r_i_glide_lipo>  (208) 
-0.844159

>  <r_i_glide_hbond>  (208) 
0

>  <r_i_glide_metal>  (208) 
-0

>  <r_i_glide_rewards>  (208) 
-0.856965

>  <r_i_glide_evdw>  (208) 
-15.1328

>  <r_i_glide_ecoul>  (208) 
-2.64402

>  <r_i_glide_erotb>  (208) 
0

>  <r_i_glide_esite>  (208) 
-0.00356681

>  <r_i_glide_emodel>  (208) 
-21.4448

>  <r_i_glide_energy>  (208) 
-17.7768

>  <r_i_glide_einternal>  (208) 
1.06881

>  <r_i_glide_intrahb_reward>  (208) 
-0

>  <i_i_glide_confnum>  (208) 
1

>  <i_i_glide_posenum>  (208) 
1

>  <r_i_glide_eff_state_penalty>  (208) 
0

>  <ligand_id>  (208) 
63

>  <original_smiles>  (208) 
C=C1C2C(O)C3(C(=O)C4(C)CC(=O)C43)C(O)C2C2(C)C=CC(C)C(O)C12O

>  <smiles>  (208) 
[H]OC1([H])C([H])(C([H])([H])[H])C([H])=C([H])C2(C([H])([H])[H])C1(O[H])C(=C([H])[H])C1([H])C([H])(O[H])C3(C(=O)C4(C([H])([H])[H])C([H])([H])C(=O)C43[H])C([H])(O[H])C12[H]

$$$$
66:0:0
     RDKit          3D

 46 51  0  0  1  0  0  0  0  0999 V2000
    2.6835  -10.6243    2.6145 C   0  0  0  0  0  0  0  0  0  0  0  0
    1.4288  -10.1934    2.9224 C   0  0  0  0  0  0  0  0  0  0  0  0
    1.4683   -8.8219    2.9230 N   0  0  0  0  0  0  0  0  0  0  0  0
    0.3476   -7.9596    3.1839 C   0  0  0  0  0  0  0  0  0  0  0  0
   -0.8683   -8.5436    3.9379 C   0  0  0  0  0  0  0  0  0  0  0  0
   -1.5298   -8.7637    2.5713 C   0  0  0  0  0  0  0  0  0  0  0  0
   -0.6220   -7.6605    2.0260 C   0  0  0  0  0  0  0  0  0  0  0  0
    2.7031   -8.4031    2.5827 C   0  0  0  0  0  0  0  0  0  0  0  0
    3.2035   -7.0007    2.4622 C   0  0  2  0  0  0  0  0  0  0  0  0
    2.5557   -6.0241    1.4985 C   0  0  1  0  0  0  0  0  0  0  0  0
    2.6909   -4.5086    1.5500 C   0  0  2  0  0  0  0  0  0  0  0  0
    2.9232   -3.9995    0.1109 C   0  0  0  0  0  0  0  0  0  0  0  0
    4.3561   -4.5203   -0.2088 C   0  0  1  0  0  0  0  0  0  0  0  0
    5.3384   -3.4274   -0.6863 C   0  0  0  0  0  0  0  0  0  0  0  0
    4.8638   -2.7795   -1.8950 N   0  0  0  0  0  0  0  0  0  0  0  0
    4.5485   -3.2854   -3.0855 C   0  0  0  0  0  0  0  0  0  0  0  0
    4.1416   -2.3428   -3.9188 N   0  0  0  0  0  0  0  0  0  0  0  0
    4.2214   -1.1862   -3.1566 N   0  0  0  0  0  0  0  0  0  0  0  0
    4.6714   -1.4402   -1.9633 N   0  0  0  0  0  0  0  0  0  0  0  0
    4.7614   -5.2123    1.1185 C   0  0  1  0  0  0  0  0  0  0  0  0
    4.0891   -4.2759    2.1291 C   0  0  0  0  0  0  0  0  0  0  0  0
    3.9566   -6.5106    1.2275 C   0  0  1  0  0  0  0  0  0  0  0  0
    3.4492   -9.5079    2.4155 N   0  0  0  0  0  0  0  0  0  0  0  0
    3.0506  -11.6320    2.4763 H   0  0  0  0  0  0  0  0  0  0  0  0
    0.5271  -10.7623    3.1097 H   0  0  0  0  0  0  0  0  0  0  0  0
    0.7341   -7.0568    3.6679 H   0  0  0  0  0  0  0  0  0  0  0  0
   -0.6564   -9.4488    4.5143 H   0  0  0  0  0  0  0  0  0  0  0  0
   -1.3932   -7.8127    4.5550 H   0  0  0  0  0  0  0  0  0  0  0  0
   -1.3196   -9.7359    2.1251 H   0  0  0  0  0  0  0  0  0  0  0  0
   -2.5904   -8.5391    2.5493 H   0  0  0  0  0  0  0  0  0  0  0  0
   -1.0840   -6.6788    2.0999 H   0  0  0  0  0  0  0  0  0  0  0  0
   -0.2269   -7.8510    1.0240 H   0  0  0  0  0  0  0  0  0  0  0  0
    3.5304   -6.6770    3.4514 H   0  0  0  0  0  0  0  0  0  0  0  0
    1.7562   -6.4053    0.8663 H   0  0  0  0  0  0  0  0  0  0  0  0
    1.8695   -4.0273    2.0839 H   0  0  0  0  0  0  0  0  0  0  0  0
    2.1841   -4.3814   -0.5954 H   0  0  0  0  0  0  0  0  0  0  0  0
    2.8739   -2.9077    0.0794 H   0  0  0  0  0  0  0  0  0  0  0  0
    4.3054   -5.2747   -0.9926 H   0  0  0  0  0  0  0  0  0  0  0  0
    5.4965   -2.6747    0.0872 H   0  0  0  0  0  0  0  0  0  0  0  0
    6.3098   -3.8689   -0.9015 H   0  0  0  0  0  0  0  0  0  0  0  0
    4.6151   -4.3379   -3.3398 H   0  0  0  0  0  0  0  0  0  0  0  0
    5.8345   -5.3707    1.2467 H   0  0  0  0  0  0  0  0  0  0  0  0
    4.4166   -3.2331    2.0559 H   0  0  0  0  0  0  0  0  0  0  0  0
    4.1981   -4.5999    3.1637 H   0  0  0  0  0  0  0  0  0  0  0  0
    4.0993   -7.2207    0.4130 H   0  0  0  0  0  0  0  0  0  0  0  0
    4.4230   -9.5239    2.1418 H   0  0  0  0  0  0  0  0  0  0  0  0
  1 23  1  0
  1  2  2  0
  1 24  1  0
  2  3  1  0
  2 25  1  0
  3  4  1  0
  3  8  1  0
  4  7  1  0
  4  5  1  0
  4 26  1  0
  5  6  1  0
  5 27  1  0
  5 28  1  0
  6  7  1  0
  6 29  1  0
  6 30  1  0
  7 31  1  0
  7 32  1  0
  8  9  1  0
  8 23  2  0
  9 22  1  0
  9 10  1  0
  9 33  1  1
 10 22  1  0
 10 11  1  0
 10 34  1  6
 11 21  1  0
 11 12  1  0
 11 35  1  1
 12 13  1  0
 12 36  1  0
 12 37  1  0
 13 14  1  0
 13 20  1  0
 13 38  1  6
 14 15  1  0
 14 39  1  0
 14 40  1  0
 15 19  1  0
 15 16  1  0
 16 17  2  0
 16 41  1  0
 17 18  1  0
 18 19  2  0
 20 21  1  0
 20 22  1  0
 20 42  1  1
 21 43  1  0
 21 44  1  0
 22 45  1  6
 23 46  1  0
M  CHG  1  23   1
M  END
>  <i_m_ct_stereo_status>  (209) 
1

>  <s_m_source_file>  (209) 
/var/tmp/pbs.5076255.sched01/tmp9n4xeji_/82rcfztp6i.sdf

>  <i_m_source_file_index>  (209) 
11

>  <i_lp_mmshare_version>  (209) 
48012

>  <i_f3d_flags>  (209) 
0

>  <s_epik_input>  (209) 
W0NIMl0xW0NIMl1bQ0gyXVtDSF0xbjJbY0hdW2NIXW5jMltDQEhdM1tDQEBIXTRbQ0BIXShbQ0gyXTUpW0NAQEhdKFtDSDJdW0NASF01W0NASF0zNClbQ0gyXW42W2NIXW5ubjY=

>  <s_epik_cmdline>  (209) 
J2VwaWtfcHl0aG9uJywgJy1waHQnLCAnMi4wJywgJy1waCcsICc3LjAnLCAnLXRuJywgJzgnLCAnLW1hJywgJzIwMCcsICctaW1hZScsICc8aW5maWxlLm1hZT4nLCAnLW9tYWUnLCAnPG91dGZpbGUubWFlPic=

>  <r_lp_tautomer_probability>  (209) 
1

>  <r_epik_Ionization_Penalty>  (209) 
0.0350798

>  <r_epik_Ionization_Penalty_Charging>  (209) 
0

>  <r_epik_Ionization_Penalty_Neutral>  (209) 
0.0350798

>  <r_epik_State_Penalty>  (209) 
0.029224

>  <r_epik_Charging_Adjusted_Penalty>  (209) 
0.029224

>  <i_epik_Tot_Q>  (209) 
1

>  <i_epik_Tot_abs_Q>  (209) 
1

>  <s_lp_Force_Field>  (209) 
OPLS3e

>  <r_lp_Energy>  (209) 
65.0164

>  <b_lp_Chiralities_Consistent>  (209) 
1

>  <s_lp_Variant>  (209) 
66:0-1

>  <s_i_glide_gridfile>  (209) 
pfpi4k_grid

>  <i_i_glide_lignum>  (209) 
11

>  <i_i_glide_rotatable_bonds>  (209) 
4

>  <r_i_docking_score>  (209) 
-3.42544

>  <r_i_glide_ligand_efficiency>  (209) 
-0.148932

>  <r_i_glide_ligand_efficiency_sa>  (209) 
-0.423543

>  <r_i_glide_ligand_efficiency_ln>  (209) 
-0.828302

>  <r_i_glide_gscore>  (209) 
-3.42544

>  <r_i_glide_lipo>  (209) 
-0.399942

>  <r_i_glide_hbond>  (209) 
0

>  <r_i_glide_metal>  (209) 
-0

>  <r_i_glide_rewards>  (209) 
-1.49461

>  <r_i_glide_evdw>  (209) 
-29.0072

>  <r_i_glide_ecoul>  (209) 
-5.02759

>  <r_i_glide_erotb>  (209) 
0.764947

>  <r_i_glide_esite>  (209) 
-0.0913329

>  <r_i_glide_emodel>  (209) 
-42.0324

>  <r_i_glide_energy>  (209) 
-34.0347

>  <r_i_glide_einternal>  (209) 
1.15807

>  <r_i_glide_intrahb_reward>  (209) 
-0

>  <i_i_glide_confnum>  (209) 
3

>  <i_i_glide_posenum>  (209) 
16

>  <r_i_glide_eff_state_penalty>  (209) 
0

>  <ligand_id>  (209) 
66

>  <original_smiles>  (209) 
c1cn(C2CCC2)c(C2C3C4CC(Cn5cnnn5)C(C4)C23)n1

>  <smiles>  (209) 
[H]c1nnnn1C([H])([H])C1([H])C([H])([H])C2([H])C([H])([H])C1([H])C1([H])C([H])(c3n(C4([H])C([H])([H])C([H])([H])C4([H])[H])c([H])c([H])[n+]3[H])C21[H]

$$$$
66:0:1
     RDKit          3D

 46 51  0  0  1  0  0  0  0  0999 V2000
    2.7269  -10.8878    2.8775 C   0  0  0  0  0  0  0  0  0  0  0  0
    1.7184  -10.4951    3.7003 C   0  0  0  0  0  0  0  0  0  0  0  0
    1.7889   -9.1268    3.7955 N   0  0  0  0  0  0  0  0  0  0  0  0
    0.9377   -8.3184    4.6285 C   0  0  0  0  0  0  0  0  0  0  0  0
    1.0571   -8.4605    6.1617 C   0  0  0  0  0  0  0  0  0  0  0  0
   -0.1560   -9.3974    6.1365 C   0  0  0  0  0  0  0  0  0  0  0  0
   -0.5355   -8.7494    4.7934 C   0  0  0  0  0  0  0  0  0  0  0  0
    2.7973   -8.6728    3.0203 C   0  0  0  0  0  0  0  0  0  0  0  0
    3.2445   -7.2596    2.8165 C   0  0  2  0  0  0  0  0  0  0  0  0
    2.5708   -6.3844    1.7764 C   0  0  1  0  0  0  0  0  0  0  0  0
    2.6396   -4.8641    1.7144 C   0  0  2  0  0  0  0  0  0  0  0  0
    2.8807   -4.4499    0.2485 C   0  0  0  0  0  0  0  0  0  0  0  0
    4.3420   -4.9281   -0.0051 C   0  0  1  0  0  0  0  0  0  0  0  0
    5.2876   -3.8311   -0.5472 C   0  0  0  0  0  0  0  0  0  0  0  0
    4.8193   -3.2802   -1.8075 N   0  0  0  0  0  0  0  0  0  0  0  0
    4.7232   -3.8350   -3.0153 C   0  0  0  0  0  0  0  0  0  0  0  0
    4.2197   -2.9866   -3.9020 N   0  0  0  0  0  0  0  0  0  0  0  0
    4.0191   -1.8394   -3.1557 N   0  0  0  0  0  0  0  0  0  0  0  0
    4.3799   -2.0030   -1.9176 N   0  0  0  0  0  0  0  0  0  0  0  0
    4.7478   -5.5024    1.3738 C   0  0  1  0  0  0  0  0  0  0  0  0
    4.0142   -4.5265    2.3006 C   0  0  0  0  0  0  0  0  0  0  0  0
    3.9967   -6.8216    1.5616 C   0  0  1  0  0  0  0  0  0  0  0  0
    3.3719   -9.7508    2.4634 N   0  0  0  0  0  0  0  0  0  0  0  0
    2.9967  -11.8761    2.5303 H   0  0  0  0  0  0  0  0  0  0  0  0
    0.9741  -11.0946    4.2099 H   0  0  0  0  0  0  0  0  0  0  0  0
    1.0301   -7.2813    4.2887 H   0  0  0  0  0  0  0  0  0  0  0  0
    1.9908   -8.9229    6.4925 H   0  0  0  0  0  0  0  0  0  0  0  0
    0.8531   -7.5336    6.6999 H   0  0  0  0  0  0  0  0  0  0  0  0
    0.1360  -10.4437    6.0612 H   0  0  0  0  0  0  0  0  0  0  0  0
   -0.8805   -9.2622    6.9377 H   0  0  0  0  0  0  0  0  0  0  0  0
   -1.2235   -7.9104    4.9064 H   0  0  0  0  0  0  0  0  0  0  0  0
   -0.8929   -9.4392    4.0224 H   0  0  0  0  0  0  0  0  0  0  0  0
    3.5368   -6.8515    3.7864 H   0  0  0  0  0  0  0  0  0  0  0  0
    1.7941   -6.8507    1.1700 H   0  0  0  0  0  0  0  0  0  0  0  0
    1.7905   -4.3800    2.1989 H   0  0  0  0  0  0  0  0  0  0  0  0
    2.1748   -4.9129   -0.4442 H   0  0  0  0  0  0  0  0  0  0  0  0
    2.7880   -3.3663    0.1380 H   0  0  0  0  0  0  0  0  0  0  0  0
    4.3368   -5.7473   -0.7232 H   0  0  0  0  0  0  0  0  0  0  0  0
    5.4058   -3.0193    0.1764 H   0  0  0  0  0  0  0  0  0  0  0  0
    6.2798   -4.2516   -0.7088 H   0  0  0  0  0  0  0  0  0  0  0  0
    5.0153   -4.8528   -3.2367 H   0  0  0  0  0  0  0  0  0  0  0  0
    5.8238   -5.6048    1.5334 H   0  0  0  0  0  0  0  0  0  0  0  0
    4.2984   -3.4797    2.1570 H   0  0  0  0  0  0  0  0  0  0  0  0
    4.1153   -4.7723    3.3585 H   0  0  0  0  0  0  0  0  0  0  0  0
    4.1871   -7.5778    0.7989 H   0  0  0  0  0  0  0  0  0  0  0  0
    4.1560   -9.7410    1.8186 H   0  0  0  0  0  0  0  0  0  0  0  0
  1 23  1  0
  1  2  2  0
  1 24  1  0
  2  3  1  0
  2 25  1  0
  3  4  1  0
  3  8  1  0
  4  7  1  0
  4  5  1  0
  4 26  1  0
  5  6  1  0
  5 27  1  0
  5 28  1  0
  6  7  1  0
  6 29  1  0
  6 30  1  0
  7 31  1  0
  7 32  1  0
  8  9  1  0
  8 23  2  0
  9 22  1  0
  9 10  1  0
  9 33  1  1
 10 22  1  0
 10 11  1  0
 10 34  1  6
 11 21  1  0
 11 12  1  0
 11 35  1  1
 12 13  1  0
 12 36  1  0
 12 37  1  0
 13 14  1  0
 13 20  1  0
 13 38  1  6
 14 15  1  0
 14 39  1  0
 14 40  1  0
 15 19  1  0
 15 16  1  0
 16 17  2  0
 16 41  1  0
 17 18  1  0
 18 19  2  0
 20 21  1  0
 20 22  1  0
 20 42  1  1
 21 43  1  0
 21 44  1  0
 22 45  1  6
 23 46  1  0
M  CHG  1  23   1
M  END
>  <i_m_ct_stereo_status>  (210) 
1

>  <s_m_source_file>  (210) 
/var/tmp/pbs.5076255.sched01/tmp9n4xeji_/82rcfztp6i.sdf

>  <i_m_source_file_index>  (210) 
11

>  <i_lp_mmshare_version>  (210) 
48012

>  <i_f3d_flags>  (210) 
0

>  <s_epik_input>  (210) 
W0NIMl0xW0NIMl1bQ0gyXVtDSF0xbjJbY0hdW2NIXW5jMltDQEhdM1tDQEBIXTRbQ0BIXShbQ0gyXTUpW0NAQEhdKFtDSDJdW0NASF01W0NASF0zNClbQ0gyXW42W2NIXW5ubjY=

>  <s_epik_cmdline>  (210) 
J2VwaWtfcHl0aG9uJywgJy1waHQnLCAnMi4wJywgJy1waCcsICc3LjAnLCAnLXRuJywgJzgnLCAnLW1hJywgJzIwMCcsICctaW1hZScsICc8aW5maWxlLm1hZT4nLCAnLW9tYWUnLCAnPG91dGZpbGUubWFlPic=

>  <r_lp_tautomer_probability>  (210) 
1

>  <r_epik_Ionization_Penalty>  (210) 
0.0350798

>  <r_epik_Ionization_Penalty_Charging>  (210) 
0

>  <r_epik_Ionization_Penalty_Neutral>  (210) 
0.0350798

>  <r_epik_State_Penalty>  (210) 
0.029224

>  <r_epik_Charging_Adjusted_Penalty>  (210) 
0.029224

>  <i_epik_Tot_Q>  (210) 
1

>  <i_epik_Tot_abs_Q>  (210) 
1

>  <s_lp_Force_Field>  (210) 
OPLS3e

>  <r_lp_Energy>  (210) 
65.0164

>  <b_lp_Chiralities_Consistent>  (210) 
1

>  <s_lp_Variant>  (210) 
66:0-1

>  <s_i_glide_gridfile>  (210) 
pfpi4k_grid

>  <i_i_glide_lignum>  (210) 
11

>  <i_i_glide_rotatable_bonds>  (210) 
4

>  <r_i_docking_score>  (210) 
-3.0106

>  <r_i_glide_ligand_efficiency>  (210) 
-0.130896

>  <r_i_glide_ligand_efficiency_sa>  (210) 
-0.37225

>  <r_i_glide_ligand_efficiency_ln>  (210) 
-0.72799

>  <r_i_glide_gscore>  (210) 
-3.0106

>  <r_i_glide_lipo>  (210) 
-0.208296

>  <r_i_glide_hbond>  (210) 
0

>  <r_i_glide_metal>  (210) 
-0

>  <r_i_glide_rewards>  (210) 
-1.35562

>  <r_i_glide_evdw>  (210) 
-25.325

>  <r_i_glide_ecoul>  (210) 
-5.74907

>  <r_i_glide_erotb>  (210) 
0.764947

>  <r_i_glide_esite>  (210) 
-0.0830214

>  <r_i_glide_emodel>  (210) 
-38.3122

>  <r_i_glide_energy>  (210) 
-31.0741

>  <r_i_glide_einternal>  (210) 
0.445386

>  <r_i_glide_intrahb_reward>  (210) 
-0

>  <i_i_glide_confnum>  (210) 
3

>  <i_i_glide_posenum>  (210) 
19

>  <r_i_glide_eff_state_penalty>  (210) 
0

>  <ligand_id>  (210) 
66

>  <original_smiles>  (210) 
c1cn(C2CCC2)c(C2C3C4CC(Cn5cnnn5)C(C4)C23)n1

>  <smiles>  (210) 
[H]c1nnnn1C([H])([H])C1([H])C([H])([H])C2([H])C([H])([H])C1([H])C1([H])C([H])(c3n(C4([H])C([H])([H])C([H])([H])C4([H])[H])c([H])c([H])[n+]3[H])C21[H]

$$$$
66:0:2
     RDKit          3D

 46 51  0  0  1  0  0  0  0  0999 V2000
    2.8961  -11.1263    2.9209 C   0  0  0  0  0  0  0  0  0  0  0  0
    2.1763  -10.8427    4.0337 C   0  0  0  0  0  0  0  0  0  0  0  0
    2.1683   -9.4780    4.1785 N   0  0  0  0  0  0  0  0  0  0  0  0
    1.4853   -8.7573    5.2232 C   0  0  0  0  0  0  0  0  0  0  0  0
    1.5162   -9.3516    6.6482 C   0  0  0  0  0  0  0  0  0  0  0  0
    0.1069   -9.9119    6.4088 C   0  0  0  0  0  0  0  0  0  0  0  0
   -0.0521   -8.8551    5.3091 C   0  0  0  0  0  0  0  0  0  0  0  0
    2.8870   -8.9177    3.1689 C   0  0  0  0  0  0  0  0  0  0  0  0
    3.1663   -7.4762    2.9137 C   0  0  2  0  0  0  0  0  0  0  0  0
    2.3899   -6.7231    1.8542 C   0  0  1  0  0  0  0  0  0  0  0  0
    2.2908   -5.2183    1.7556 C   0  0  2  0  0  0  0  0  0  0  0  0
    2.4749   -4.8250    0.2853 C   0  0  0  0  0  0  0  0  0  0  0  0
    3.9836   -5.1209    0.0034 C   0  0  1  0  0  0  0  0  0  0  0  0
    4.7879   -3.9285   -0.5740 C   0  0  0  0  0  0  0  0  0  0  0  0
    4.2628   -3.4134   -1.8335 N   0  0  0  0  0  0  0  0  0  0  0  0
    3.1224   -2.7781   -2.1462 C   0  0  0  0  0  0  0  0  0  0  0  0
    3.0578   -2.5011   -3.4427 N   0  0  0  0  0  0  0  0  0  0  0  0
    4.2519   -2.9834   -3.9255 N   0  0  0  0  0  0  0  0  0  0  0  0
    4.9785   -3.4933   -2.9816 N   0  0  0  0  0  0  0  0  0  0  0  0
    4.4556   -5.6085    1.4020 C   0  0  1  0  0  0  0  0  0  0  0  0
    3.6204   -4.6964    2.3109 C   0  0  0  0  0  0  0  0  0  0  0  0
    3.8551   -6.9968    1.6374 C   0  0  1  0  0  0  0  0  0  0  0  0
    3.3271   -9.9351    2.4121 N   0  0  0  0  0  0  0  0  0  0  0  0
    3.1087  -12.0744    2.4660 H   0  0  0  0  0  0  0  0  0  0  0  0
    1.6672  -11.5195    4.7154 H   0  0  0  0  0  0  0  0  0  0  0  0
    1.8281   -7.7211    5.2087 H   0  0  0  0  0  0  0  0  0  0  0  0
    2.3002  -10.0999    6.8071 H   0  0  0  0  0  0  0  0  0  0  0  0
    1.5333   -8.5918    7.4309 H   0  0  0  0  0  0  0  0  0  0  0  0
    0.0994  -10.9263    6.0141 H   0  0  0  0  0  0  0  0  0  0  0  0
   -0.5750   -9.8243    7.2545 H   0  0  0  0  0  0  0  0  0  0  0  0
   -0.5214   -7.9452    5.6809 H   0  0  0  0  0  0  0  0  0  0  0  0
   -0.5381   -9.2057    4.3948 H   0  0  0  0  0  0  0  0  0  0  0  0
    3.4250   -6.9996    3.8583 H   0  0  0  0  0  0  0  0  0  0  0  0
    1.6696   -7.2845    1.2610 H   0  0  0  0  0  0  0  0  0  0  0  0
    1.3955   -4.8121    2.2307 H   0  0  0  0  0  0  0  0  0  0  0  0
    1.8150   -5.3642   -0.4000 H   0  0  0  0  0  0  0  0  0  0  0  0
    2.2380   -3.7601    0.2469 H   0  0  0  0  0  0  0  0  0  0  0  0
    4.0896   -5.9477   -0.7007 H   0  0  0  0  0  0  0  0  0  0  0  0
    4.8308   -3.1097    0.1387 H   0  0  0  0  0  0  0  0  0  0  0  0
    5.8262   -4.2508   -0.7213 H   0  0  0  0  0  0  0  0  0  0  0  0
    2.3334   -2.5200   -1.4512 H   0  0  0  0  0  0  0  0  0  0  0  0
    5.5385   -5.5836    1.5637 H   0  0  0  0  0  0  0  0  0  0  0  0
    3.7768   -3.6297    2.1314 H   0  0  0  0  0  0  0  0  0  0  0  0
    3.7542   -4.8878    3.3765 H   0  0  0  0  0  0  0  0  0  0  0  0
    4.1255   -7.7423    0.8928 H   0  0  0  0  0  0  0  0  0  0  0  0
    3.8922   -9.8539    1.5743 H   0  0  0  0  0  0  0  0  0  0  0  0
  1 23  1  0
  1  2  2  0
  1 24  1  0
  2  3  1  0
  2 25  1  0
  3  4  1  0
  3  8  1  0
  4  7  1  0
  4  5  1  0
  4 26  1  0
  5  6  1  0
  5 27  1  0
  5 28  1  0
  6  7  1  0
  6 29  1  0
  6 30  1  0
  7 31  1  0
  7 32  1  0
  8  9  1  0
  8 23  2  0
  9 22  1  0
  9 10  1  0
  9 33  1  1
 10 22  1  0
 10 11  1  0
 10 34  1  6
 11 21  1  0
 11 12  1  0
 11 35  1  1
 12 13  1  0
 12 36  1  0
 12 37  1  0
 13 14  1  0
 13 20  1  0
 13 38  1  6
 14 15  1  0
 14 39  1  0
 14 40  1  0
 15 19  1  0
 15 16  1  0
 16 17  2  0
 16 41  1  0
 17 18  1  0
 18 19  2  0
 20 21  1  0
 20 22  1  0
 20 42  1  6
 21 43  1  0
 21 44  1  0
 22 45  1  6
 23 46  1  0
M  CHG  1  23   1
M  END
>  <i_m_ct_stereo_status>  (211) 
1

>  <s_m_source_file>  (211) 
/var/tmp/pbs.5076255.sched01/tmp9n4xeji_/82rcfztp6i.sdf

>  <i_m_source_file_index>  (211) 
11

>  <i_lp_mmshare_version>  (211) 
48012

>  <i_f3d_flags>  (211) 
0

>  <s_epik_input>  (211) 
W0NIMl0xW0NIMl1bQ0gyXVtDSF0xbjJbY0hdW2NIXW5jMltDQEhdM1tDQEBIXTRbQ0BIXShbQ0gyXTUpW0NAQEhdKFtDSDJdW0NASF01W0NASF0zNClbQ0gyXW42W2NIXW5ubjY=

>  <s_epik_cmdline>  (211) 
J2VwaWtfcHl0aG9uJywgJy1waHQnLCAnMi4wJywgJy1waCcsICc3LjAnLCAnLXRuJywgJzgnLCAnLW1hJywgJzIwMCcsICctaW1hZScsICc8aW5maWxlLm1hZT4nLCAnLW9tYWUnLCAnPG91dGZpbGUubWFlPic=

>  <r_lp_tautomer_probability>  (211) 
1

>  <r_epik_Ionization_Penalty>  (211) 
0.0350798

>  <r_epik_Ionization_Penalty_Charging>  (211) 
0

>  <r_epik_Ionization_Penalty_Neutral>  (211) 
0.0350798

>  <r_epik_State_Penalty>  (211) 
0.029224

>  <r_epik_Charging_Adjusted_Penalty>  (211) 
0.029224

>  <i_epik_Tot_Q>  (211) 
1

>  <i_epik_Tot_abs_Q>  (211) 
1

>  <s_lp_Force_Field>  (211) 
OPLS3e

>  <r_lp_Energy>  (211) 
65.0164

>  <b_lp_Chiralities_Consistent>  (211) 
1

>  <s_lp_Variant>  (211) 
66:0-1

>  <s_i_glide_gridfile>  (211) 
pfpi4k_grid

>  <i_i_glide_lignum>  (211) 
11

>  <i_i_glide_rotatable_bonds>  (211) 
4

>  <r_i_docking_score>  (211) 
-2.91361

>  <r_i_glide_ligand_efficiency>  (211) 
-0.126678

>  <r_i_glide_ligand_efficiency_sa>  (211) 
-0.360257

>  <r_i_glide_ligand_efficiency_ln>  (211) 
-0.704536

>  <r_i_glide_gscore>  (211) 
-2.91361

>  <r_i_glide_lipo>  (211) 
-0.12989

>  <r_i_glide_hbond>  (211) 
0

>  <r_i_glide_metal>  (211) 
-0

>  <r_i_glide_rewards>  (211) 
-1.28588

>  <r_i_glide_evdw>  (211) 
-25.9039

>  <r_i_glide_ecoul>  (211) 
-5.64372

>  <r_i_glide_erotb>  (211) 
0.764947

>  <r_i_glide_esite>  (211) 
-0.12103

>  <r_i_glide_emodel>  (211) 
-37.9837

>  <r_i_glide_energy>  (211) 
-31.5477

>  <r_i_glide_einternal>  (211) 
0.87813

>  <r_i_glide_intrahb_reward>  (211) 
-0

>  <i_i_glide_confnum>  (211) 
1

>  <i_i_glide_posenum>  (211) 
25

>  <r_i_glide_eff_state_penalty>  (211) 
0

>  <ligand_id>  (211) 
66

>  <original_smiles>  (211) 
c1cn(C2CCC2)c(C2C3C4CC(Cn5cnnn5)C(C4)C23)n1

>  <smiles>  (211) 
[H]c1nnnn1C([H])([H])C1([H])C([H])([H])C2([H])C([H])([H])C1([H])C1([H])C([H])(c3n(C4([H])C([H])([H])C([H])([H])C4([H])[H])c([H])c([H])[n+]3[H])C21[H]

$$$$
66:1:0
     RDKit          3D

 45 50  0  0  1  0  0  0  0  0999 V2000
   -1.2465   -7.7309    2.7768 C   0  0  0  0  0  0  0  0  0  0  0  0
   -0.6069   -8.8844    3.1403 C   0  0  0  0  0  0  0  0  0  0  0  0
    0.7501   -8.6889    2.9211 N   0  0  0  0  0  0  0  0  0  0  0  0
    1.7638   -9.6668    3.2455 C   0  0  0  0  0  0  0  0  0  0  0  0
    1.4004  -11.1623    3.2254 C   0  0  0  0  0  0  0  0  0  0  0  0
    1.2490  -11.1037    4.7514 C   0  0  0  0  0  0  0  0  0  0  0  0
    2.1549   -9.8668    4.7226 C   0  0  0  0  0  0  0  0  0  0  0  0
    0.8659   -7.4299    2.4453 C   0  0  0  0  0  0  0  0  0  0  0  0
    2.1800   -6.7921    2.1077 C   0  0  2  0  0  0  0  0  0  0  0  0
    2.2863   -5.2853    1.9554 C   0  0  1  0  0  0  0  0  0  0  0  0
    3.5717   -4.4730    1.9620 C   0  0  2  0  0  0  0  0  0  0  0  0
    3.5075   -3.4532    0.8005 C   0  0  0  0  0  0  0  0  0  0  0  0
    3.6099   -4.3618   -0.4577 C   0  0  1  0  0  0  0  0  0  0  0  0
    4.7515   -3.9834   -1.4270 C   0  0  0  0  0  0  0  0  0  0  0  0
    4.3547   -2.9078   -2.3107 N   0  0  0  0  0  0  0  0  0  0  0  0
    3.5781   -2.9191   -3.3942 C   0  0  0  0  0  0  0  0  0  0  0  0
    3.4754   -1.7162   -3.9276 N   0  0  0  0  0  0  0  0  0  0  0  0
    4.2173   -0.9182   -3.0717 N   0  0  0  0  0  0  0  0  0  0  0  0
    4.7621   -1.6289   -2.1220 N   0  0  0  0  0  0  0  0  0  0  0  0
    3.7739   -5.7733    0.1664 C   0  0  1  0  0  0  0  0  0  0  0  0
    4.6187   -5.4365    1.3998 C   0  0  0  0  0  0  0  0  0  0  0  0
    2.4193   -6.1743    0.7448 C   0  0  1  0  0  0  0  0  0  0  0  0
   -0.3102   -6.8003    2.3335 N   0  0  0  0  0  0  0  0  0  0  0  0
   -2.3008   -7.5224    2.8209 H   0  0  0  0  0  0  0  0  0  0  0  0
   -0.9977   -9.8081    3.5422 H   0  0  0  0  0  0  0  0  0  0  0  0
    2.6291   -9.4826    2.6090 H   0  0  0  0  0  0  0  0  0  0  0  0
    0.4945  -11.4096    2.6681 H   0  0  0  0  0  0  0  0  0  0  0  0
    2.2298  -11.8030    2.9136 H   0  0  0  0  0  0  0  0  0  0  0  0
    0.2377  -10.8669    5.0869 H   0  0  0  0  0  0  0  0  0  0  0  0
    1.6486  -11.9709    5.2784 H   0  0  0  0  0  0  0  0  0  0  0  0
    3.2064  -10.1258    4.8657 H   0  0  0  0  0  0  0  0  0  0  0  0
    1.8529   -9.0577    5.3917 H   0  0  0  0  0  0  0  0  0  0  0  0
    3.0015   -7.3103    2.6020 H   0  0  0  0  0  0  0  0  0  0  0  0
    1.3817   -4.7007    2.0814 H   0  0  0  0  0  0  0  0  0  0  0  0
    3.7842   -4.0473    2.9453 H   0  0  0  0  0  0  0  0  0  0  0  0
    2.5891   -2.8630    0.8088 H   0  0  0  0  0  0  0  0  0  0  0  0
    4.3460   -2.7570    0.8595 H   0  0  0  0  0  0  0  0  0  0  0  0
    2.6669   -4.3282   -1.0069 H   0  0  0  0  0  0  0  0  0  0  0  0
    5.6642   -3.7118   -0.8919 H   0  0  0  0  0  0  0  0  0  0  0  0
    5.0116   -4.8360   -2.0521 H   0  0  0  0  0  0  0  0  0  0  0  0
    3.0992   -3.8025   -3.7958 H   0  0  0  0  0  0  0  0  0  0  0  0
    4.1880   -6.5372   -0.4971 H   0  0  0  0  0  0  0  0  0  0  0  0
    5.5708   -4.9528    1.1646 H   0  0  0  0  0  0  0  0  0  0  0  0
    4.8129   -6.2950    2.0404 H   0  0  0  0  0  0  0  0  0  0  0  0
    1.5915   -6.2087    0.0410 H   0  0  0  0  0  0  0  0  0  0  0  0
  1 23  1  0
  1  2  2  0
  1 24  1  0
  2  3  1  0
  2 25  1  0
  3  4  1  0
  3  8  1  0
  4  7  1  0
  4  5  1  0
  4 26  1  0
  5  6  1  0
  5 27  1  0
  5 28  1  0
  6  7  1  0
  6 29  1  0
  6 30  1  0
  7 31  1  0
  7 32  1  0
  8  9  1  0
  8 23  2  0
  9 22  1  0
  9 10  1  0
  9 33  1  1
 10 22  1  0
 10 11  1  0
 10 34  1  6
 11 21  1  0
 11 12  1  0
 11 35  1  1
 12 13  1  0
 12 36  1  0
 12 37  1  0
 13 14  1  0
 13 20  1  0
 13 38  1  6
 14 15  1  0
 14 39  1  0
 14 40  1  0
 15 19  1  0
 15 16  1  0
 16 17  2  0
 16 41  1  0
 17 18  1  0
 18 19  2  0
 20 21  1  0
 20 22  1  0
 20 42  1  6
 21 43  1  0
 21 44  1  0
 22 45  1  6
M  END
>  <i_m_ct_stereo_status>  (212) 
1

>  <s_m_source_file>  (212) 
/var/tmp/pbs.5076255.sched01/tmp9n4xeji_/82rcfztp6i.sdf

>  <i_m_source_file_index>  (212) 
12

>  <i_lp_mmshare_version>  (212) 
48012

>  <i_f3d_flags>  (212) 
0

>  <s_epik_input>  (212) 
W0NIMl0xW0NIMl1bQ0gyXVtDSF0xbjJbY0hdW2NIXW5jMltDQEhdM1tDQEBIXTRbQ0BIXShbQ0gyXTUpW0NAQEhdKFtDSDJdW0NASF01W0NASF0zNClbQ0gyXW42W2NIXW5ubjY=

>  <s_epik_cmdline>  (212) 
J2VwaWtfcHl0aG9uJywgJy1waHQnLCAnMi4wJywgJy1waCcsICc3LjAnLCAnLXRuJywgJzgnLCAnLW1hJywgJzIwMCcsICctaW1hZScsICc8aW5maWxlLm1hZT4nLCAnLW9tYWUnLCAnPG91dGZpbGUubWFlPic=

>  <r_lp_tautomer_probability>  (212) 
1

>  <r_epik_Ionization_Penalty>  (212) 
1.69223

>  <r_epik_Ionization_Penalty_Charging>  (212) 
1.69223

>  <r_epik_Ionization_Penalty_Neutral>  (212) 
1.14325e-08

>  <r_epik_State_Penalty>  (212) 
1.79754

>  <r_epik_Charging_Adjusted_Penalty>  (212) 
3.48978

>  <i_epik_Tot_Q>  (212) 
0

>  <i_epik_Tot_abs_Q>  (212) 
0

>  <s_lp_Force_Field>  (212) 
OPLS3e

>  <r_lp_Energy>  (212) 
57.7583

>  <b_lp_Chiralities_Consistent>  (212) 
1

>  <s_lp_Variant>  (212) 
66:0-2

>  <s_i_glide_gridfile>  (212) 
pfpi4k_grid

>  <i_i_glide_lignum>  (212) 
12

>  <i_i_glide_rotatable_bonds>  (212) 
4

>  <r_i_docking_score>  (212) 
-3.66976

>  <r_i_glide_ligand_efficiency>  (212) 
-0.159555

>  <r_i_glide_ligand_efficiency_sa>  (212) 
-0.453753

>  <r_i_glide_ligand_efficiency_ln>  (212) 
-0.887381

>  <r_i_glide_gscore>  (212) 
-3.66976

>  <r_i_glide_lipo>  (212) 
-0.238188

>  <r_i_glide_hbond>  (212) 
-0.16

>  <r_i_glide_metal>  (212) 
-0

>  <r_i_glide_rewards>  (212) 
-1.51578

>  <r_i_glide_evdw>  (212) 
-31.698

>  <r_i_glide_ecoul>  (212) 
-5.68961

>  <r_i_glide_erotb>  (212) 
0.769316

>  <r_i_glide_esite>  (212) 
-0.0867658

>  <r_i_glide_emodel>  (212) 
-44.8549

>  <r_i_glide_energy>  (212) 
-37.3876

>  <r_i_glide_einternal>  (212) 
3.11451

>  <r_i_glide_intrahb_reward>  (212) 
-0

>  <i_i_glide_confnum>  (212) 
6

>  <i_i_glide_posenum>  (212) 
38

>  <r_i_glide_eff_state_penalty>  (212) 
0

>  <ligand_id>  (212) 
66

>  <original_smiles>  (212) 
c1cn(C2CCC2)c(C2C3C4CC(Cn5cnnn5)C(C4)C23)n1

>  <smiles>  (212) 
[H]c1nc(C2([H])C3([H])C4([H])C([H])([H])C([H])(C([H])([H])n5nnnc5[H])C([H])(C4([H])[H])C23[H])n(C2([H])C([H])([H])C([H])([H])C2([H])[H])c1[H]

$$$$
66:1:1
     RDKit          3D

 45 50  0  0  1  0  0  0  0  0999 V2000
    2.9693  -10.4457    2.8028 C   0  0  0  0  0  0  0  0  0  0  0  0
    1.6736  -10.1287    3.1203 C   0  0  0  0  0  0  0  0  0  0  0  0
    1.5746   -8.7456    3.0967 N   0  0  0  0  0  0  0  0  0  0  0  0
    0.3613   -8.0075    3.3557 C   0  0  0  0  0  0  0  0  0  0  0  0
   -0.7262   -8.6238    4.2570 C   0  0  0  0  0  0  0  0  0  0  0  0
   -1.4704   -9.0548    2.9840 C   0  0  0  0  0  0  0  0  0  0  0  0
   -0.7044   -7.9535    2.2506 C   0  0  0  0  0  0  0  0  0  0  0  0
    2.7991   -8.3011    2.7420 C   0  0  0  0  0  0  0  0  0  0  0  0
    3.1356   -6.8560    2.6229 C   0  0  2  0  0  0  0  0  0  0  0  0
    2.3793   -5.9688    1.6516 C   0  0  1  0  0  0  0  0  0  0  0  0
    2.3602   -4.4491    1.6853 C   0  0  2  0  0  0  0  0  0  0  0  0
    2.5340   -3.9335    0.2376 C   0  0  0  0  0  0  0  0  0  0  0  0
    4.0096   -4.3058   -0.0923 C   0  0  1  0  0  0  0  0  0  0  0  0
    4.8888   -3.1313   -0.5680 C   0  0  0  0  0  0  0  0  0  0  0  0
    4.3956   -2.5258   -1.7951 N   0  0  0  0  0  0  0  0  0  0  0  0
    3.5287   -1.5403   -2.0001 C   0  0  0  0  0  0  0  0  0  0  0  0
    3.3829   -1.2742   -3.2883 N   0  0  0  0  0  0  0  0  0  0  0  0
    4.2165   -2.1909   -3.8993 N   0  0  0  0  0  0  0  0  0  0  0  0
    4.8298   -2.9329   -3.0143 N   0  0  0  0  0  0  0  0  0  0  0  0
    4.4858   -4.9430    1.2425 C   0  0  1  0  0  0  0  0  0  0  0  0
    3.7302   -4.0696    2.2517 C   0  0  0  0  0  0  0  0  0  0  0  0
    3.8126   -6.3103    1.3725 C   0  0  1  0  0  0  0  0  0  0  0  0
    3.6874   -9.2757    2.5755 N   0  0  0  0  0  0  0  0  0  0  0  0
    3.3964  -11.4255    2.6862 H   0  0  0  0  0  0  0  0  0  0  0  0
    0.8328  -10.7678    3.3417 H   0  0  0  0  0  0  0  0  0  0  0  0
    0.6513   -7.0152    3.7022 H   0  0  0  0  0  0  0  0  0  0  0  0
   -0.3859   -9.4385    4.9000 H   0  0  0  0  0  0  0  0  0  0  0  0
   -1.2799   -7.8776    4.8324 H   0  0  0  0  0  0  0  0  0  0  0  0
   -1.1898  -10.0481    2.6305 H   0  0  0  0  0  0  0  0  0  0  0  0
   -2.5530   -8.9410    3.0180 H   0  0  0  0  0  0  0  0  0  0  0  0
   -1.2601   -7.0175    2.2164 H   0  0  0  0  0  0  0  0  0  0  0  0
   -0.3312   -8.2380    1.2702 H   0  0  0  0  0  0  0  0  0  0  0  0
    3.4454   -6.4784    3.5960 H   0  0  0  0  0  0  0  0  0  0  0  0
    1.6199   -6.4353    1.0287 H   0  0  0  0  0  0  0  0  0  0  0  0
    1.5006   -4.0551    2.2307 H   0  0  0  0  0  0  0  0  0  0  0  0
    1.8339   -4.3958   -0.4606 H   0  0  0  0  0  0  0  0  0  0  0  0
    2.3674   -2.8532    0.2128 H   0  0  0  0  0  0  0  0  0  0  0  0
    4.0348   -5.0614   -0.8767 H   0  0  0  0  0  0  0  0  0  0  0  0
    4.9396   -2.3564    0.1950 H   0  0  0  0  0  0  0  0  0  0  0  0
    5.9084   -3.4823   -0.7334 H   0  0  0  0  0  0  0  0  0  0  0  0
    3.0179   -1.0195   -1.2021 H   0  0  0  0  0  0  0  0  0  0  0  0
    5.5689   -5.0003    1.3702 H   0  0  0  0  0  0  0  0  0  0  0  0
    3.9488   -2.9980    2.1726 H   0  0  0  0  0  0  0  0  0  0  0  0
    3.8736   -4.3735    3.2871 H   0  0  0  0  0  0  0  0  0  0  0  0
    4.0207   -7.0162    0.5714 H   0  0  0  0  0  0  0  0  0  0  0  0
  1 23  1  0
  1  2  2  0
  1 24  1  0
  2  3  1  0
  2 25  1  0
  3  4  1  0
  3  8  1  0
  4  7  1  0
  4  5  1  0
  4 26  1  0
  5  6  1  0
  5 27  1  0
  5 28  1  0
  6  7  1  0
  6 29  1  0
  6 30  1  0
  7 31  1  0
  7 32  1  0
  8  9  1  0
  8 23  2  0
  9 22  1  0
  9 10  1  0
  9 33  1  1
 10 22  1  0
 10 11  1  0
 10 34  1  6
 11 21  1  0
 11 12  1  0
 11 35  1  1
 12 13  1  0
 12 36  1  0
 12 37  1  0
 13 14  1  0
 13 20  1  0
 13 38  1  6
 14 15  1  0
 14 39  1  0
 14 40  1  0
 15 19  1  0
 15 16  1  0
 16 17  2  0
 16 41  1  0
 17 18  1  0
 18 19  2  0
 20 21  1  0
 20 22  1  0
 20 42  1  1
 21 43  1  0
 21 44  1  0
 22 45  1  6
M  END
>  <i_m_ct_stereo_status>  (213) 
1

>  <s_m_source_file>  (213) 
/var/tmp/pbs.5076255.sched01/tmp9n4xeji_/82rcfztp6i.sdf

>  <i_m_source_file_index>  (213) 
12

>  <i_lp_mmshare_version>  (213) 
48012

>  <i_f3d_flags>  (213) 
0

>  <s_epik_input>  (213) 
W0NIMl0xW0NIMl1bQ0gyXVtDSF0xbjJbY0hdW2NIXW5jMltDQEhdM1tDQEBIXTRbQ0BIXShbQ0gyXTUpW0NAQEhdKFtDSDJdW0NASF01W0NASF0zNClbQ0gyXW42W2NIXW5ubjY=

>  <s_epik_cmdline>  (213) 
J2VwaWtfcHl0aG9uJywgJy1waHQnLCAnMi4wJywgJy1waCcsICc3LjAnLCAnLXRuJywgJzgnLCAnLW1hJywgJzIwMCcsICctaW1hZScsICc8aW5maWxlLm1hZT4nLCAnLW9tYWUnLCAnPG91dGZpbGUubWFlPic=

>  <r_lp_tautomer_probability>  (213) 
1

>  <r_epik_Ionization_Penalty>  (213) 
1.69223

>  <r_epik_Ionization_Penalty_Charging>  (213) 
1.69223

>  <r_epik_Ionization_Penalty_Neutral>  (213) 
1.14325e-08

>  <r_epik_State_Penalty>  (213) 
1.79754

>  <r_epik_Charging_Adjusted_Penalty>  (213) 
3.48978

>  <i_epik_Tot_Q>  (213) 
0

>  <i_epik_Tot_abs_Q>  (213) 
0

>  <s_lp_Force_Field>  (213) 
OPLS3e

>  <r_lp_Energy>  (213) 
57.7583

>  <b_lp_Chiralities_Consistent>  (213) 
1

>  <s_lp_Variant>  (213) 
66:0-2

>  <s_i_glide_gridfile>  (213) 
pfpi4k_grid

>  <i_i_glide_lignum>  (213) 
12

>  <i_i_glide_rotatable_bonds>  (213) 
4

>  <r_i_docking_score>  (213) 
-2.58329

>  <r_i_glide_ligand_efficiency>  (213) 
-0.112317

>  <r_i_glide_ligand_efficiency_sa>  (213) 
-0.319414

>  <r_i_glide_ligand_efficiency_ln>  (213) 
-0.624663

>  <r_i_glide_gscore>  (213) 
-2.58329

>  <r_i_glide_lipo>  (213) 
-0.199055

>  <r_i_glide_hbond>  (213) 
0

>  <r_i_glide_metal>  (213) 
-0

>  <r_i_glide_rewards>  (213) 
-1.29275

>  <r_i_glide_evdw>  (213) 
-28.6309

>  <r_i_glide_ecoul>  (213) 
-2.1869

>  <r_i_glide_erotb>  (213) 
0.769316

>  <r_i_glide_esite>  (213) 
-0.101219

>  <r_i_glide_emodel>  (213) 
-37.0066

>  <r_i_glide_energy>  (213) 
-30.8179

>  <r_i_glide_einternal>  (213) 
0.369067

>  <r_i_glide_intrahb_reward>  (213) 
-0

>  <i_i_glide_confnum>  (213) 
4

>  <i_i_glide_posenum>  (213) 
20

>  <r_i_glide_eff_state_penalty>  (213) 
0

>  <ligand_id>  (213) 
66

>  <original_smiles>  (213) 
c1cn(C2CCC2)c(C2C3C4CC(Cn5cnnn5)C(C4)C23)n1

>  <smiles>  (213) 
[H]c1nc(C2([H])C3([H])C4([H])C([H])([H])C([H])(C([H])([H])n5nnnc5[H])C([H])(C4([H])[H])C23[H])n(C2([H])C([H])([H])C([H])([H])C2([H])[H])c1[H]

$$$$
66:1:2
     RDKit          3D

 45 50  0  0  1  0  0  0  0  0999 V2000
   -0.1807   -5.6540    5.6361 C   0  0  0  0  0  0  0  0  0  0  0  0
   -0.4092   -6.6642    4.7399 C   0  0  0  0  0  0  0  0  0  0  0  0
    0.6126   -6.6159    3.8015 N   0  0  0  0  0  0  0  0  0  0  0  0
    0.7275   -7.5072    2.6770 C   0  0  0  0  0  0  0  0  0  0  0  0
   -0.1952   -7.2629    1.4725 C   0  0  0  0  0  0  0  0  0  0  0  0
   -1.0946   -8.3847    2.0066 C   0  0  0  0  0  0  0  0  0  0  0  0
    0.1273   -8.9196    2.7639 C   0  0  0  0  0  0  0  0  0  0  0  0
    1.3790   -5.5598    4.1482 C   0  0  0  0  0  0  0  0  0  0  0  0
    2.6038   -5.1474    3.4063 C   0  0  2  0  0  0  0  0  0  0  0  0
    2.6440   -3.7843    2.7296 C   0  0  1  0  0  0  0  0  0  0  0  0
    3.9010   -3.0540    2.2730 C   0  0  2  0  0  0  0  0  0  0  0  0
    3.6595   -2.5122    0.8431 C   0  0  0  0  0  0  0  0  0  0  0  0
    3.6119   -3.8098   -0.0165 C   0  0  1  0  0  0  0  0  0  0  0  0
    4.6005   -3.8341   -1.1985 C   0  0  0  0  0  0  0  0  0  0  0  0
    4.2096   -2.8939   -2.2272 N   0  0  0  0  0  0  0  0  0  0  0  0
    3.2824   -2.9778   -3.1777 C   0  0  0  0  0  0  0  0  0  0  0  0
    3.2520   -1.8839   -3.9199 N   0  0  0  0  0  0  0  0  0  0  0  0
    4.2175   -1.0752   -3.3461 N   0  0  0  0  0  0  0  0  0  0  0  0
    4.7985   -1.6783   -2.3425 N   0  0  0  0  0  0  0  0  0  0  0  0
    3.8891   -4.9072    1.0404 C   0  0  1  0  0  0  0  0  0  0  0  0
    4.8854   -4.1813    1.9514 C   0  0  0  0  0  0  0  0  0  0  0  0
    2.6353   -5.0280    1.8932 C   0  0  1  0  0  0  0  0  0  0  0  0
    0.9529   -4.9473    5.2497 N   0  0  0  0  0  0  0  0  0  0  0  0
   -0.7761   -5.3798    6.4871 H   0  0  0  0  0  0  0  0  0  0  0  0
   -1.2031   -7.3944    4.6965 H   0  0  0  0  0  0  0  0  0  0  0  0
    1.7800   -7.5543    2.3997 H   0  0  0  0  0  0  0  0  0  0  0  0
   -0.6566   -6.2765    1.4466 H   0  0  0  0  0  0  0  0  0  0  0  0
    0.2712   -7.5006    0.5150 H   0  0  0  0  0  0  0  0  0  0  0  0
   -1.8899   -8.0154    2.6524 H   0  0  0  0  0  0  0  0  0  0  0  0
   -1.4936   -9.0716    1.2696 H   0  0  0  0  0  0  0  0  0  0  0  0
    0.6990   -9.6521    2.1877 H   0  0  0  0  0  0  0  0  0  0  0  0
   -0.0583   -9.2784    3.7775 H   0  0  0  0  0  0  0  0  0  0  0  0
    3.4826   -5.5103    3.9368 H   0  0  0  0  0  0  0  0  0  0  0  0
    1.7359   -3.1860    2.7538 H   0  0  0  0  0  0  0  0  0  0  0  0
    4.2400   -2.3119    2.9999 H   0  0  0  0  0  0  0  0  0  0  0  0
    2.7390   -1.9304    0.7633 H   0  0  0  0  0  0  0  0  0  0  0  0
    4.4860   -1.8655    0.5411 H   0  0  0  0  0  0  0  0  0  0  0  0
    2.6072   -3.9492   -0.4194 H   0  0  0  0  0  0  0  0  0  0  0  0
    5.6203   -3.6183   -0.8782 H   0  0  0  0  0  0  0  0  0  0  0  0
    4.6196   -4.8257   -1.6433 H   0  0  0  0  0  0  0  0  0  0  0  0
    2.6371   -3.8345   -3.3346 H   0  0  0  0  0  0  0  0  0  0  0  0
    4.2087   -5.8713    0.6386 H   0  0  0  0  0  0  0  0  0  0  0  0
    5.7899   -3.8383    1.4381 H   0  0  0  0  0  0  0  0  0  0  0  0
    5.1829   -4.7650    2.8208 H   0  0  0  0  0  0  0  0  0  0  0  0
    1.7282   -5.2500    1.3422 H   0  0  0  0  0  0  0  0  0  0  0  0
  1 23  1  0
  1  2  2  0
  1 24  1  0
  2  3  1  0
  2 25  1  0
  3  4  1  0
  3  8  1  0
  4  7  1  0
  4  5  1  0
  4 26  1  0
  5  6  1  0
  5 27  1  0
  5 28  1  0
  6  7  1  0
  6 29  1  0
  6 30  1  0
  7 31  1  0
  7 32  1  0
  8  9  1  0
  8 23  2  0
  9 22  1  0
  9 10  1  0
  9 33  1  1
 10 22  1  0
 10 11  1  0
 10 34  1  6
 11 21  1  0
 11 12  1  0
 11 35  1  1
 12 13  1  0
 12 36  1  0
 12 37  1  0
 13 14  1  0
 13 20  1  0
 13 38  1  6
 14 15  1  0
 14 39  1  0
 14 40  1  0
 15 19  1  0
 15 16  1  0
 16 17  2  0
 16 41  1  0
 17 18  1  0
 18 19  2  0
 20 21  1  0
 20 22  1  0
 20 42  1  6
 21 43  1  0
 21 44  1  0
 22 45  1  6
M  END
>  <i_m_ct_stereo_status>  (214) 
1

>  <s_m_source_file>  (214) 
/var/tmp/pbs.5076255.sched01/tmp9n4xeji_/82rcfztp6i.sdf

>  <i_m_source_file_index>  (214) 
12

>  <i_lp_mmshare_version>  (214) 
48012

>  <i_f3d_flags>  (214) 
0

>  <s_epik_input>  (214) 
W0NIMl0xW0NIMl1bQ0gyXVtDSF0xbjJbY0hdW2NIXW5jMltDQEhdM1tDQEBIXTRbQ0BIXShbQ0gyXTUpW0NAQEhdKFtDSDJdW0NASF01W0NASF0zNClbQ0gyXW42W2NIXW5ubjY=

>  <s_epik_cmdline>  (214) 
J2VwaWtfcHl0aG9uJywgJy1waHQnLCAnMi4wJywgJy1waCcsICc3LjAnLCAnLXRuJywgJzgnLCAnLW1hJywgJzIwMCcsICctaW1hZScsICc8aW5maWxlLm1hZT4nLCAnLW9tYWUnLCAnPG91dGZpbGUubWFlPic=

>  <r_lp_tautomer_probability>  (214) 
1

>  <r_epik_Ionization_Penalty>  (214) 
1.69223

>  <r_epik_Ionization_Penalty_Charging>  (214) 
1.69223

>  <r_epik_Ionization_Penalty_Neutral>  (214) 
1.14325e-08

>  <r_epik_State_Penalty>  (214) 
1.79754

>  <r_epik_Charging_Adjusted_Penalty>  (214) 
3.48978

>  <i_epik_Tot_Q>  (214) 
0

>  <i_epik_Tot_abs_Q>  (214) 
0

>  <s_lp_Force_Field>  (214) 
OPLS3e

>  <r_lp_Energy>  (214) 
57.7583

>  <b_lp_Chiralities_Consistent>  (214) 
1

>  <s_lp_Variant>  (214) 
66:0-2

>  <s_i_glide_gridfile>  (214) 
pfpi4k_grid

>  <i_i_glide_lignum>  (214) 
12

>  <i_i_glide_rotatable_bonds>  (214) 
4

>  <r_i_docking_score>  (214) 
-2.53337

>  <r_i_glide_ligand_efficiency>  (214) 
-0.110146

>  <r_i_glide_ligand_efficiency_sa>  (214) 
-0.313242

>  <r_i_glide_ligand_efficiency_ln>  (214) 
-0.612591

>  <r_i_glide_gscore>  (214) 
-2.53337

>  <r_i_glide_lipo>  (214) 
-0.0440591

>  <r_i_glide_hbond>  (214) 
0

>  <r_i_glide_metal>  (214) 
-0

>  <r_i_glide_rewards>  (214) 
-1.3987

>  <r_i_glide_evdw>  (214) 
-28.0288

>  <r_i_glide_ecoul>  (214) 
-2.61998

>  <r_i_glide_erotb>  (214) 
0.769316

>  <r_i_glide_esite>  (214) 
-0.0654899

>  <r_i_glide_emodel>  (214) 
-36.5777

>  <r_i_glide_energy>  (214) 
-30.6488

>  <r_i_glide_einternal>  (214) 
0.687566

>  <r_i_glide_intrahb_reward>  (214) 
-0

>  <i_i_glide_confnum>  (214) 
6

>  <i_i_glide_posenum>  (214) 
12

>  <r_i_glide_eff_state_penalty>  (214) 
0

>  <ligand_id>  (214) 
66

>  <original_smiles>  (214) 
c1cn(C2CCC2)c(C2C3C4CC(Cn5cnnn5)C(C4)C23)n1

>  <smiles>  (214) 
[H]c1nc(C2([H])C3([H])C4([H])C([H])([H])C([H])(C([H])([H])n5nnnc5[H])C([H])(C4([H])[H])C23[H])n(C2([H])C([H])([H])C([H])([H])C2([H])[H])c1[H]

$$$$
67:0:0
     RDKit          3D

 49 54  0  0  1  0  0  0  0  0999 V2000
    0.9784   -4.7561    4.4850 O   0  0  0  0  0  0  0  0  0  0  0  0
    1.8117   -5.0293    3.4405 C   0  0  0  0  0  0  0  0  0  0  0  0
    1.8860   -6.3318    2.8945 C   0  0  0  0  0  0  0  0  0  0  0  0
    2.7623   -6.6606    1.8156 C   0  0  0  0  0  0  0  0  0  0  0  0
    3.5601   -5.6300    1.2600 C   0  0  0  0  0  0  0  0  0  0  0  0
    3.3977   -4.3786    1.8406 C   0  0  0  0  0  0  0  0  0  0  0  0
    2.6149   -3.9883    2.9121 C   0  0  0  0  0  0  0  0  0  0  0  0
    2.7704   -2.6634    3.2537 O   0  0  0  0  0  0  0  0  0  0  0  0
    4.0204   -2.2829    2.6314 C   0  0  2  0  0  0  0  0  0  0  0  0
    4.3867   -0.8237    2.2737 C   0  0  1  0  0  0  0  0  0  0  0  0
    4.8642   -0.1766    3.4341 O   0  0  0  0  0  0  0  0  0  0  0  0
    5.4988   -0.8119    1.2049 C   0  0  0  0  0  0  0  0  0  0  0  0
    5.9415   -1.9076    0.5282 C   0  0  0  0  0  0  0  0  0  0  0  0
    5.3767   -3.3172    0.7506 C   0  0  2  0  0  0  0  0  0  0  0  0
    6.2805   -3.9514    1.6327 O   0  0  0  0  0  0  0  0  0  0  0  0
    5.1688   -4.3315   -0.4219 C   0  0  1  0  0  0  0  0  0  0  0  0
    4.6152   -5.6995    0.1278 C   0  0  0  0  0  0  0  0  0  0  0  0
    4.2329   -3.8377   -1.4962 N   0  0  2  0  0  0  0  0  0  0  0  0
    4.8392   -2.8003   -2.3915 C   0  0  0  0  0  0  0  0  0  0  0  0
    4.0483   -2.5756   -3.6631 C   0  0  0  0  0  0  0  0  0  0  0  0
    3.9964   -1.1892   -4.2872 C   0  0  0  0  0  0  0  0  0  0  0  0
    2.7625   -1.7769   -3.6770 C   0  0  0  0  0  0  0  0  0  0  0  0
    2.8903   -3.4997   -0.9359 C   0  0  0  0  0  0  0  0  0  0  0  0
    3.0266   -2.5531    0.2604 C   0  0  0  0  0  0  0  0  0  0  0  0
    3.9929   -3.1246    1.3521 C   0  0  1  0  0  0  0  0  0  0  0  0
    1.0903   -3.8763    4.8090 H   0  0  0  0  0  0  0  0  0  0  0  0
    1.2704   -7.1168    3.3122 H   0  0  0  0  0  0  0  0  0  0  0  0
    2.8188   -7.6706    1.4335 H   0  0  0  0  0  0  0  0  0  0  0  0
    4.8049   -2.6683    3.2912 H   0  0  0  0  0  0  0  0  0  0  0  0
    3.5169   -0.2867    1.8928 H   0  0  0  0  0  0  0  0  0  0  0  0
    4.6132    0.7374    3.4023 H   0  0  0  0  0  0  0  0  0  0  0  0
    5.9533    0.1475    1.0157 H   0  0  0  0  0  0  0  0  0  0  0  0
    6.7467   -1.8133   -0.1790 H   0  0  0  0  0  0  0  0  0  0  0  0
    5.8661   -4.7261    1.9889 H   0  0  0  0  0  0  0  0  0  0  0  0
    6.1282   -4.5291   -0.8985 H   0  0  0  0  0  0  0  0  0  0  0  0
    5.4518   -6.2597    0.5266 H   0  0  0  0  0  0  0  0  0  0  0  0
    4.2306   -6.3070   -0.6893 H   0  0  0  0  0  0  0  0  0  0  0  0
    4.9335   -1.8534   -1.8766 H   0  0  0  0  0  0  0  0  0  0  0  0
    5.8473   -3.1046   -2.6812 H   0  0  0  0  0  0  0  0  0  0  0  0
    4.1300   -3.3921   -4.3737 H   0  0  0  0  0  0  0  0  0  0  0  0
    4.4145   -0.3501   -3.7334 H   0  0  0  0  0  0  0  0  0  0  0  0
    3.9426   -1.0533   -5.3654 H   0  0  0  0  0  0  0  0  0  0  0  0
    1.9798   -2.1787   -4.3190 H   0  0  0  0  0  0  0  0  0  0  0  0
    2.4239   -1.2206   -2.8036 H   0  0  0  0  0  0  0  0  0  0  0  0
    2.1801   -3.1419   -1.6644 H   0  0  0  0  0  0  0  0  0  0  0  0
    2.4061   -4.4327   -0.6289 H   0  0  0  0  0  0  0  0  0  0  0  0
    3.3474   -1.5813   -0.1124 H   0  0  0  0  0  0  0  0  0  0  0  0
    2.0420   -2.3656    0.6725 H   0  0  0  0  0  0  0  0  0  0  0  0
    4.0636   -4.6337   -2.0986 H   0  0  0  0  0  0  0  0  0  0  0  0
  1  2  1  0
  1 26  1  0
  2  7  2  0
  2  3  1  0
  3  4  2  0
  3 27  1  0
  4  5  1  0
  4 28  1  0
  5 17  1  0
  5  6  2  0
  6 25  1  0
  6  7  1  0
  7  8  1  0
  8  9  1  0
  9 25  1  0
  9 10  1  0
  9 29  1  1
 10 11  1  0
 10 12  1  0
 10 30  1  6
 11 31  1  0
 12 13  2  0
 12 32  1  0
 13 14  1  0
 13 33  1  0
 14 25  1  0
 14 15  1  1
 14 16  1  0
 15 34  1  0
 16 17  1  0
 16 18  1  0
 16 35  1  6
 17 36  1  0
 17 37  1  0
 18 19  1  0
 18 23  1  0
 18 49  1  6
 19 20  1  0
 19 38  1  0
 19 39  1  0
 20 22  1  0
 20 21  1  0
 20 40  1  0
 21 22  1  0
 21 41  1  0
 21 42  1  0
 22 43  1  0
 22 44  1  0
 23 24  1  0
 23 45  1  0
 23 46  1  0
 25 24  1  6
 24 47  1  0
 24 48  1  0
M  CHG  1  18   1
M  END
>  <i_m_ct_stereo_status>  (215) 
1

>  <s_m_source_file>  (215) 
/var/tmp/pbs.5076255.sched01/tmp9n4xeji_/82rcfztp6i.sdf

>  <i_m_source_file_index>  (215) 
13

>  <i_lp_mmshare_version>  (215) 
48012

>  <i_f3d_flags>  (215) 
0

>  <s_epik_input>  (215) 
W0NAXTEyM2M0YzVbY0hdW2NIXWMoW09IXSljNE9bQ0BASF0xW0NAQEhdKFtPSF0pW0NIXT1bQ0hdW0NAXTIoW09IXSlbQ0BASF0oW0NIMl01KU4oW0NIMl1bQ0gyXTMpW0NIMl1bQ0hdNltDSDJdW0NIMl02

>  <s_epik_cmdline>  (215) 
J2VwaWtfcHl0aG9uJywgJy1waHQnLCAnMi4wJywgJy1waCcsICc3LjAnLCAnLXRuJywgJzgnLCAnLW1hJywgJzIwMCcsICctaW1hZScsICc8aW5maWxlLm1hZT4nLCAnLW9tYWUnLCAnPG91dGZpbGUubWFlPic=

>  <r_lp_tautomer_probability>  (215) 
1

>  <r_epik_Ionization_Penalty>  (215) 
0.0593193

>  <r_epik_Ionization_Penalty_Charging>  (215) 
0.0482746

>  <r_epik_Ionization_Penalty_Neutral>  (215) 
0.0110447

>  <r_epik_State_Penalty>  (215) 
0.0490418

>  <r_epik_Charging_Adjusted_Penalty>  (215) 
0.0973164

>  <i_epik_Tot_Q>  (215) 
1

>  <i_epik_Tot_abs_Q>  (215) 
1

>  <s_lp_Force_Field>  (215) 
OPLS3e

>  <r_lp_Energy>  (215) 
75.3411

>  <b_lp_Chiralities_Consistent>  (215) 
1

>  <s_lp_Variant>  (215) 
67:0-1

>  <s_i_glide_gridfile>  (215) 
pfpi4k_grid

>  <i_i_glide_lignum>  (215) 
13

>  <i_i_glide_rotatable_bonds>  (215) 
5

>  <r_i_docking_score>  (215) 
-3.92994

>  <r_i_glide_ligand_efficiency>  (215) 
-0.157198

>  <r_i_glide_ligand_efficiency_sa>  (215) 
-0.459649

>  <r_i_glide_ligand_efficiency_ln>  (215) 
-0.931514

>  <r_i_glide_gscore>  (215) 
-3.92994

>  <r_i_glide_lipo>  (215) 
-0.958065

>  <r_i_glide_hbond>  (215) 
0

>  <r_i_glide_metal>  (215) 
-0

>  <r_i_glide_rewards>  (215) 
-1.07449

>  <r_i_glide_evdw>  (215) 
-28.1678

>  <r_i_glide_ecoul>  (215) 
-5.18444

>  <r_i_glide_erotb>  (215) 
0.323465

>  <r_i_glide_esite>  (215) 
-0.0347997

>  <r_i_glide_emodel>  (215) 
-40.1259

>  <r_i_glide_energy>  (215) 
-33.3523

>  <r_i_glide_einternal>  (215) 
2.14465

>  <r_i_glide_intrahb_reward>  (215) 
-0

>  <i_i_glide_confnum>  (215) 
1

>  <i_i_glide_posenum>  (215) 
30

>  <r_i_glide_eff_state_penalty>  (215) 
0

>  <ligand_id>  (215) 
67

>  <original_smiles>  (215) 
Oc1ccc2c3c1OC1C(O)C=CC4(O)C(C2)N(CC2CC2)CCC314

>  <smiles>  (215) 
[H]Oc1c([H])c([H])c2c3c1OC1([H])C([H])(O[H])C([H])=C([H])C4(O[H])C31C([H])([H])C([H])([H])[N+]([H])(C([H])([H])C1([H])C([H])([H])C1([H])[H])C4([H])C2([H])[H]

$$$$
67:0:1
     RDKit          3D

 49 54  0  0  1  0  0  0  0  0999 V2000
    0.7325   -5.3850    4.4250 O   0  0  0  0  0  0  0  0  0  0  0  0
    1.6167   -5.5284    3.3960 C   0  0  0  0  0  0  0  0  0  0  0  0
    1.7479   -6.7824    2.7341 C   0  0  0  0  0  0  0  0  0  0  0  0
    2.6782   -6.9769    1.6754 C   0  0  0  0  0  0  0  0  0  0  0  0
    3.4688   -5.8952    1.2389 C   0  0  0  0  0  0  0  0  0  0  0  0
    3.2496   -4.6953    1.9229 C   0  0  0  0  0  0  0  0  0  0  0  0
    2.4132   -4.4389    2.9905 C   0  0  0  0  0  0  0  0  0  0  0  0
    2.5299   -3.1445    3.4617 O   0  0  0  0  0  0  0  0  0  0  0  0
    3.7958   -2.6824    2.9339 C   0  0  2  0  0  0  0  0  0  0  0  0
    4.1517   -1.1895    2.7356 C   0  0  1  0  0  0  0  0  0  0  0  0
    4.5639   -0.6492    3.9744 O   0  0  0  0  0  0  0  0  0  0  0  0
    5.3091   -1.0563    1.7214 C   0  0  0  0  0  0  0  0  0  0  0  0
    5.8009   -2.0735    0.9606 C   0  0  0  0  0  0  0  0  0  0  0  0
    5.2608   -3.5100    1.0265 C   0  0  2  0  0  0  0  0  0  0  0  0
    6.1427   -4.2090    1.8895 O   0  0  0  0  0  0  0  0  0  0  0  0
    5.1175   -4.4154   -0.2501 C   0  0  1  0  0  0  0  0  0  0  0  0
    4.5721   -5.8374    0.1569 C   0  0  0  0  0  0  0  0  0  0  0  0
    4.2306   -3.8326   -1.3078 N   0  0  2  0  0  0  0  0  0  0  0  0
    4.8573   -2.7152   -2.0700 C   0  0  0  0  0  0  0  0  0  0  0  0
    4.2177   -2.4979   -3.4295 C   0  0  0  0  0  0  0  0  0  0  0  0
    4.2105   -1.1059   -4.0459 C   0  0  0  0  0  0  0  0  0  0  0  0
    2.9316   -1.7087   -3.5675 C   0  0  0  0  0  0  0  0  0  0  0  0
    2.8603   -3.5407   -0.7996 C   0  0  0  0  0  0  0  0  0  0  0  0
    2.9155   -2.7284    0.5028 C   0  0  0  0  0  0  0  0  0  0  0  0
    3.8433   -3.3967    1.5767 C   0  0  1  0  0  0  0  0  0  0  0  0
    0.3932   -6.2095    4.7371 H   0  0  0  0  0  0  0  0  0  0  0  0
    1.1378   -7.6155    3.0386 H   0  0  0  0  0  0  0  0  0  0  0  0
    2.7752   -7.9480    1.2069 H   0  0  0  0  0  0  0  0  0  0  0  0
    4.5584   -3.1137    3.5874 H   0  0  0  0  0  0  0  0  0  0  0  0
    3.2886   -0.6317    2.3706 H   0  0  0  0  0  0  0  0  0  0  0  0
    4.5048    0.2941    3.9374 H   0  0  0  0  0  0  0  0  0  0  0  0
    5.7537   -0.0751    1.6434 H   0  0  0  0  0  0  0  0  0  0  0  0
    6.6317   -1.8911    0.2995 H   0  0  0  0  0  0  0  0  0  0  0  0
    5.7454   -5.0352    2.1242 H   0  0  0  0  0  0  0  0  0  0  0  0
    6.1017   -4.5624   -0.6980 H   0  0  0  0  0  0  0  0  0  0  0  0
    5.4052   -6.4259    0.5398 H   0  0  0  0  0  0  0  0  0  0  0  0
    4.2294   -6.3762   -0.7231 H   0  0  0  0  0  0  0  0  0  0  0  0
    4.8035   -1.7881   -1.5025 H   0  0  0  0  0  0  0  0  0  0  0  0
    5.9157   -2.9245   -2.2454 H   0  0  0  0  0  0  0  0  0  0  0  0
    4.3674   -3.3189   -4.1327 H   0  0  0  0  0  0  0  0  0  0  0  0
    4.6068   -0.2827   -3.4559 H   0  0  0  0  0  0  0  0  0  0  0  0
    4.3119   -1.0006   -5.1217 H   0  0  0  0  0  0  0  0  0  0  0  0
    2.2196   -2.0738   -4.3052 H   0  0  0  0  0  0  0  0  0  0  0  0
    2.5004   -1.2451   -2.6820 H   0  0  0  0  0  0  0  0  0  0  0  0
    2.2379   -3.0389   -1.5340 H   0  0  0  0  0  0  0  0  0  0  0  0
    2.3360   -4.4833   -0.6413 H   0  0  0  0  0  0  0  0  0  0  0  0
    3.2316   -1.7149    0.2475 H   0  0  0  0  0  0  0  0  0  0  0  0
    1.9014   -2.6063    0.8845 H   0  0  0  0  0  0  0  0  0  0  0  0
    4.0982   -4.5758   -1.9845 H   0  0  0  0  0  0  0  0  0  0  0  0
  1  2  1  0
  1 26  1  0
  2  7  2  0
  2  3  1  0
  3  4  2  0
  3 27  1  0
  4  5  1  0
  4 28  1  0
  5 17  1  0
  5  6  2  0
  6 25  1  0
  6  7  1  0
  7  8  1  0
  8  9  1  0
  9 25  1  0
  9 10  1  0
  9 29  1  1
 10 11  1  0
 10 12  1  0
 10 30  1  6
 11 31  1  0
 12 13  2  0
 12 32  1  0
 13 14  1  0
 13 33  1  0
 14 25  1  0
 14 15  1  1
 14 16  1  0
 15 34  1  0
 16 17  1  0
 16 18  1  0
 16 35  1  6
 17 36  1  0
 17 37  1  0
 18 19  1  0
 18 23  1  0
 18 49  1  6
 19 20  1  0
 19 38  1  0
 19 39  1  0
 20 22  1  0
 20 21  1  0
 20 40  1  0
 21 22  1  0
 21 41  1  0
 21 42  1  0
 22 43  1  0
 22 44  1  0
 23 24  1  0
 23 45  1  0
 23 46  1  0
 25 24  1  6
 24 47  1  0
 24 48  1  0
M  CHG  1  18   1
M  END
>  <i_m_ct_stereo_status>  (216) 
1

>  <s_m_source_file>  (216) 
/var/tmp/pbs.5076255.sched01/tmp9n4xeji_/82rcfztp6i.sdf

>  <i_m_source_file_index>  (216) 
13

>  <i_lp_mmshare_version>  (216) 
48012

>  <i_f3d_flags>  (216) 
0

>  <s_epik_input>  (216) 
W0NAXTEyM2M0YzVbY0hdW2NIXWMoW09IXSljNE9bQ0BASF0xW0NAQEhdKFtPSF0pW0NIXT1bQ0hdW0NAXTIoW09IXSlbQ0BASF0oW0NIMl01KU4oW0NIMl1bQ0gyXTMpW0NIMl1bQ0hdNltDSDJdW0NIMl02

>  <s_epik_cmdline>  (216) 
J2VwaWtfcHl0aG9uJywgJy1waHQnLCAnMi4wJywgJy1waCcsICc3LjAnLCAnLXRuJywgJzgnLCAnLW1hJywgJzIwMCcsICctaW1hZScsICc8aW5maWxlLm1hZT4nLCAnLW9tYWUnLCAnPG91dGZpbGUubWFlPic=

>  <r_lp_tautomer_probability>  (216) 
1

>  <r_epik_Ionization_Penalty>  (216) 
0.0593193

>  <r_epik_Ionization_Penalty_Charging>  (216) 
0.0482746

>  <r_epik_Ionization_Penalty_Neutral>  (216) 
0.0110447

>  <r_epik_State_Penalty>  (216) 
0.0490418

>  <r_epik_Charging_Adjusted_Penalty>  (216) 
0.0973164

>  <i_epik_Tot_Q>  (216) 
1

>  <i_epik_Tot_abs_Q>  (216) 
1

>  <s_lp_Force_Field>  (216) 
OPLS3e

>  <r_lp_Energy>  (216) 
75.3411

>  <b_lp_Chiralities_Consistent>  (216) 
1

>  <s_lp_Variant>  (216) 
67:0-1

>  <s_i_glide_gridfile>  (216) 
pfpi4k_grid

>  <i_i_glide_lignum>  (216) 
13

>  <i_i_glide_rotatable_bonds>  (216) 
5

>  <r_i_docking_score>  (216) 
-3.71898

>  <r_i_glide_ligand_efficiency>  (216) 
-0.148759

>  <r_i_glide_ligand_efficiency_sa>  (216) 
-0.434974

>  <r_i_glide_ligand_efficiency_ln>  (216) 
-0.881509

>  <r_i_glide_gscore>  (216) 
-3.71898

>  <r_i_glide_lipo>  (216) 
-0.925176

>  <r_i_glide_hbond>  (216) 
0

>  <r_i_glide_metal>  (216) 
-0

>  <r_i_glide_rewards>  (216) 
-1.07449

>  <r_i_glide_evdw>  (216) 
-28.1051

>  <r_i_glide_ecoul>  (216) 
-4.06267

>  <r_i_glide_erotb>  (216) 
0.323465

>  <r_i_glide_esite>  (216) 
-0.0281269

>  <r_i_glide_emodel>  (216) 
-39.3688

>  <r_i_glide_energy>  (216) 
-32.1678

>  <r_i_glide_einternal>  (216) 
1.3322

>  <r_i_glide_intrahb_reward>  (216) 
-0

>  <i_i_glide_confnum>  (216) 
1

>  <i_i_glide_posenum>  (216) 
33

>  <r_i_glide_eff_state_penalty>  (216) 
0

>  <ligand_id>  (216) 
67

>  <original_smiles>  (216) 
Oc1ccc2c3c1OC1C(O)C=CC4(O)C(C2)N(CC2CC2)CCC314

>  <smiles>  (216) 
[H]Oc1c([H])c([H])c2c3c1OC1([H])C([H])(O[H])C([H])=C([H])C4(O[H])C31C([H])([H])C([H])([H])[N+]([H])(C([H])([H])C1([H])C([H])([H])C1([H])[H])C4([H])C2([H])[H]

$$$$
67:0:2
     RDKit          3D

 49 54  0  0  1  0  0  0  0  0999 V2000
    3.2777   -6.3478    4.5154 O   0  0  0  0  0  0  0  0  0  0  0  0
    4.0560   -5.6848    3.6134 C   0  0  0  0  0  0  0  0  0  0  0  0
    5.2823   -6.2531    3.1635 C   0  0  0  0  0  0  0  0  0  0  0  0
    6.1292   -5.5754    2.2393 C   0  0  0  0  0  0  0  0  0  0  0  0
    5.7303   -4.3266    1.7226 C   0  0  0  0  0  0  0  0  0  0  0  0
    4.4971   -3.8642    2.1938 C   0  0  0  0  0  0  0  0  0  0  0  0
    3.6481   -4.4250    3.1264 C   0  0  0  0  0  0  0  0  0  0  0  0
    2.5491   -3.6340    3.4006 O   0  0  0  0  0  0  0  0  0  0  0  0
    2.9324   -2.3225    2.9311 C   0  0  2  0  0  0  0  0  0  0  0  0
    1.9259   -1.2115    2.5512 C   0  0  1  0  0  0  0  0  0  0  0  0
    1.4796   -0.5837    3.7352 O   0  0  0  0  0  0  0  0  0  0  0  0
    2.6147   -0.1602    1.6545 C   0  0  0  0  0  0  0  0  0  0  0  0
    3.8528   -0.2945    1.1057 C   0  0  0  0  0  0  0  0  0  0  0  0
    4.7374   -1.5291    1.3346 C   0  0  2  0  0  0  0  0  0  0  0  0
    5.6128   -1.1704    2.3867 O   0  0  0  0  0  0  0  0  0  0  0  0
    5.6453   -2.1362    0.2062 C   0  0  1  0  0  0  0  0  0  0  0  0
    6.4601   -3.3643    0.7610 C   0  0  0  0  0  0  0  0  0  0  0  0
    4.8853   -2.5584   -1.0146 N   0  0  2  0  0  0  0  0  0  0  0  0
    4.4365   -1.4310   -1.8736 C   0  0  0  0  0  0  0  0  0  0  0  0
    4.1935   -1.8512   -3.3104 C   0  0  0  0  0  0  0  0  0  0  0  0
    3.4015   -0.9384   -4.2221 C   0  0  0  0  0  0  0  0  0  0  0  0
    2.8091   -2.2494   -3.7693 C   0  0  0  0  0  0  0  0  0  0  0  0
    3.8192   -3.5517   -0.7167 C   0  0  0  0  0  0  0  0  0  0  0  0
    2.9487   -3.0918    0.4603 C   0  0  0  0  0  0  0  0  0  0  0  0
    3.7974   -2.6675    1.7097 C   0  0  1  0  0  0  0  0  0  0  0  0
    3.6243   -7.1920    4.7576 H   0  0  0  0  0  0  0  0  0  0  0  0
    5.5911   -7.2172    3.5307 H   0  0  0  0  0  0  0  0  0  0  0  0
    7.0690   -6.0166    1.9333 H   0  0  0  0  0  0  0  0  0  0  0  0
    3.5731   -1.9177    3.7184 H   0  0  0  0  0  0  0  0  0  0  0  0
    1.0706   -1.6266    2.0176 H   0  0  0  0  0  0  0  0  0  0  0  0
    0.8922    0.1209    3.5070 H   0  0  0  0  0  0  0  0  0  0  0  0
    2.0422    0.7366    1.4579 H   0  0  0  0  0  0  0  0  0  0  0  0
    4.2557    0.4998    0.4955 H   0  0  0  0  0  0  0  0  0  0  0  0
    5.0935   -0.8790    3.1211 H   0  0  0  0  0  0  0  0  0  0  0  0
    6.3745   -1.3904   -0.1106 H   0  0  0  0  0  0  0  0  0  0  0  0
    7.3200   -2.9840    1.3072 H   0  0  0  0  0  0  0  0  0  0  0  0
    6.8852   -3.9467   -0.0574 H   0  0  0  0  0  0  0  0  0  0  0  0
    3.5247   -0.9907   -1.4736 H   0  0  0  0  0  0  0  0  0  0  0  0
    5.1950   -0.6479   -1.8883 H   0  0  0  0  0  0  0  0  0  0  0  0
    5.0282   -2.3654   -3.7858 H   0  0  0  0  0  0  0  0  0  0  0  0
    2.9764   -0.0287   -3.7994 H   0  0  0  0  0  0  0  0  0  0  0  0
    3.6845   -0.8703   -5.2706 H   0  0  0  0  0  0  0  0  0  0  0  0
    2.7366   -3.0558   -4.4974 H   0  0  0  0  0  0  0  0  0  0  0  0
    2.0133   -2.2249   -3.0260 H   0  0  0  0  0  0  0  0  0  0  0  0
    3.2054   -3.7478   -1.5940 H   0  0  0  0  0  0  0  0  0  0  0  0
    4.2725   -4.5178   -0.4932 H   0  0  0  0  0  0  0  0  0  0  0  0
    2.3269   -2.2721    0.1000 H   0  0  0  0  0  0  0  0  0  0  0  0
    2.2469   -3.8836    0.7153 H   0  0  0  0  0  0  0  0  0  0  0  0
    5.5562   -3.0599   -1.5837 H   0  0  0  0  0  0  0  0  0  0  0  0
  1  2  1  0
  1 26  1  0
  2  7  2  0
  2  3  1  0
  3  4  2  0
  3 27  1  0
  4  5  1  0
  4 28  1  0
  5 17  1  0
  5  6  2  0
  6 25  1  0
  6  7  1  0
  7  8  1  0
  8  9  1  0
  9 25  1  0
  9 10  1  0
  9 29  1  1
 10 11  1  0
 10 12  1  0
 10 30  1  6
 11 31  1  0
 12 13  2  0
 12 32  1  0
 13 14  1  0
 13 33  1  0
 14 25  1  0
 14 15  1  1
 14 16  1  0
 15 34  1  0
 16 17  1  0
 16 18  1  0
 16 35  1  6
 17 36  1  0
 17 37  1  0
 18 19  1  0
 18 23  1  0
 18 49  1  6
 19 20  1  0
 19 38  1  0
 19 39  1  0
 20 22  1  0
 20 21  1  0
 20 40  1  0
 21 22  1  0
 21 41  1  0
 21 42  1  0
 22 43  1  0
 22 44  1  0
 23 24  1  0
 23 45  1  0
 23 46  1  0
 25 24  1  6
 24 47  1  0
 24 48  1  0
M  CHG  1  18   1
M  END
>  <i_m_ct_stereo_status>  (217) 
1

>  <s_m_source_file>  (217) 
/var/tmp/pbs.5076255.sched01/tmp9n4xeji_/82rcfztp6i.sdf

>  <i_m_source_file_index>  (217) 
13

>  <i_lp_mmshare_version>  (217) 
48012

>  <i_f3d_flags>  (217) 
0

>  <s_epik_input>  (217) 
W0NAXTEyM2M0YzVbY0hdW2NIXWMoW09IXSljNE9bQ0BASF0xW0NAQEhdKFtPSF0pW0NIXT1bQ0hdW0NAXTIoW09IXSlbQ0BASF0oW0NIMl01KU4oW0NIMl1bQ0gyXTMpW0NIMl1bQ0hdNltDSDJdW0NIMl02

>  <s_epik_cmdline>  (217) 
J2VwaWtfcHl0aG9uJywgJy1waHQnLCAnMi4wJywgJy1waCcsICc3LjAnLCAnLXRuJywgJzgnLCAnLW1hJywgJzIwMCcsICctaW1hZScsICc8aW5maWxlLm1hZT4nLCAnLW9tYWUnLCAnPG91dGZpbGUubWFlPic=

>  <r_lp_tautomer_probability>  (217) 
1

>  <r_epik_Ionization_Penalty>  (217) 
0.0593193

>  <r_epik_Ionization_Penalty_Charging>  (217) 
0.0482746

>  <r_epik_Ionization_Penalty_Neutral>  (217) 
0.0110447

>  <r_epik_State_Penalty>  (217) 
0.0490418

>  <r_epik_Charging_Adjusted_Penalty>  (217) 
0.0973164

>  <i_epik_Tot_Q>  (217) 
1

>  <i_epik_Tot_abs_Q>  (217) 
1

>  <s_lp_Force_Field>  (217) 
OPLS3e

>  <r_lp_Energy>  (217) 
75.3411

>  <b_lp_Chiralities_Consistent>  (217) 
1

>  <s_lp_Variant>  (217) 
67:0-1

>  <s_i_glide_gridfile>  (217) 
pfpi4k_grid

>  <i_i_glide_lignum>  (217) 
13

>  <i_i_glide_rotatable_bonds>  (217) 
5

>  <r_i_docking_score>  (217) 
-3.48378

>  <r_i_glide_ligand_efficiency>  (217) 
-0.139351

>  <r_i_glide_ligand_efficiency_sa>  (217) 
-0.407465

>  <r_i_glide_ligand_efficiency_ln>  (217) 
-0.825759

>  <r_i_glide_gscore>  (217) 
-3.48378

>  <r_i_glide_lipo>  (217) 
-0.767697

>  <r_i_glide_hbond>  (217) 
0

>  <r_i_glide_metal>  (217) 
-0

>  <r_i_glide_rewards>  (217) 
-1.07449

>  <r_i_glide_evdw>  (217) 
-28.5364

>  <r_i_glide_ecoul>  (217) 
-3.51771

>  <r_i_glide_erotb>  (217) 
0.323465

>  <r_i_glide_esite>  (217) 
-0.0105833

>  <r_i_glide_emodel>  (217) 
-39.5549

>  <r_i_glide_energy>  (217) 
-32.0541

>  <r_i_glide_einternal>  (217) 
0.526624

>  <r_i_glide_intrahb_reward>  (217) 
-0

>  <i_i_glide_confnum>  (217) 
1

>  <i_i_glide_posenum>  (217) 
15

>  <r_i_glide_eff_state_penalty>  (217) 
0

>  <ligand_id>  (217) 
67

>  <original_smiles>  (217) 
Oc1ccc2c3c1OC1C(O)C=CC4(O)C(C2)N(CC2CC2)CCC314

>  <smiles>  (217) 
[H]Oc1c([H])c([H])c2c3c1OC1([H])C([H])(O[H])C([H])=C([H])C4(O[H])C31C([H])([H])C([H])([H])[N+]([H])(C([H])([H])C1([H])C([H])([H])C1([H])[H])C4([H])C2([H])[H]

$$$$
67:1:0
     RDKit          3D

 48 53  0  0  1  0  0  0  0  0999 V2000
    3.4912   -7.0160    2.7969 O   0  0  0  0  0  0  0  0  0  0  0  0
    4.2908   -6.1614    2.0974 C   0  0  0  0  0  0  0  0  0  0  0  0
    5.5474   -6.6016    1.5934 C   0  0  0  0  0  0  0  0  0  0  0  0
    6.4162   -5.7240    0.8842 C   0  0  0  0  0  0  0  0  0  0  0  0
    6.0125   -4.3995    0.6306 C   0  0  0  0  0  0  0  0  0  0  0  0
    4.7505   -4.0665    1.1319 C   0  0  0  0  0  0  0  0  0  0  0  0
    3.8773   -4.8305    1.8796 C   0  0  0  0  0  0  0  0  0  0  0  0
    2.7544   -4.1286    2.2835 O   0  0  0  0  0  0  0  0  0  0  0  0
    3.1441   -2.7425    2.1442 C   0  0  2  0  0  0  0  0  0  0  0  0
    2.1492   -1.5660    1.9992 C   0  0  1  0  0  0  0  0  0  0  0  0
    1.6451   -1.2325    3.2783 O   0  0  0  0  0  0  0  0  0  0  0  0
    2.8657   -0.3341    1.4028 C   0  0  0  0  0  0  0  0  0  0  0  0
    4.1259   -0.3422    0.8892 C   0  0  0  0  0  0  0  0  0  0  0  0
    5.0012   -1.6009    0.8506 C   0  0  2  0  0  0  0  0  0  0  0  0
    5.8381   -1.5028    1.9899 O   0  0  0  0  0  0  0  0  0  0  0  0
    5.9509   -1.9289   -0.3575 C   0  0  1  0  0  0  0  0  0  0  0  0
    6.7578   -3.2458   -0.0732 C   0  0  0  0  0  0  0  0  0  0  0  0
    5.2820   -2.0469   -1.6670 N   0  0  0  0  0  0  0  0  0  0  0  0
    4.9106   -0.7717   -2.2624 C   0  0  0  0  0  0  0  0  0  0  0  0
    4.3580   -0.8664   -3.6693 C   0  0  0  0  0  0  0  0  0  0  0  0
    4.0099    0.3961   -4.4276 C   0  0  0  0  0  0  0  0  0  0  0  0
    2.9166   -0.5011   -3.9153 C   0  0  0  0  0  0  0  0  0  0  0  0
    4.2027   -3.0460   -1.6410 C   0  0  0  0  0  0  0  0  0  0  0  0
    3.2609   -2.8966   -0.4380 C   0  0  0  0  0  0  0  0  0  0  0  0
    4.0558   -2.7915    0.9097 C   0  0  1  0  0  0  0  0  0  0  0  0
    3.8491   -7.8885    2.8614 H   0  0  0  0  0  0  0  0  0  0  0  0
    5.8609   -7.6196    1.7519 H   0  0  0  0  0  0  0  0  0  0  0  0
    7.3722   -6.0767    0.5291 H   0  0  0  0  0  0  0  0  0  0  0  0
    3.7528   -2.5292    3.0278 H   0  0  0  0  0  0  0  0  0  0  0  0
    1.3245   -1.8450    1.3452 H   0  0  0  0  0  0  0  0  0  0  0  0
    1.0224   -0.5273    3.1801 H   0  0  0  0  0  0  0  0  0  0  0  0
    2.2880    0.5818    1.3964 H   0  0  0  0  0  0  0  0  0  0  0  0
    4.5495    0.5629    0.4862 H   0  0  0  0  0  0  0  0  0  0  0  0
    5.2874   -1.3954    2.7512 H   0  0  0  0  0  0  0  0  0  0  0  0
    6.6807   -1.1258   -0.4247 H   0  0  0  0  0  0  0  0  0  0  0  0
    7.6139   -3.0010    0.5505 H   0  0  0  0  0  0  0  0  0  0  0  0
    7.1715   -3.6279   -1.0080 H   0  0  0  0  0  0  0  0  0  0  0  0
    4.1859   -0.2539   -1.6409 H   0  0  0  0  0  0  0  0  0  0  0  0
    5.7967   -0.1418   -2.3133 H   0  0  0  0  0  0  0  0  0  0  0  0
    4.7664   -1.6786   -4.2691 H   0  0  0  0  0  0  0  0  0  0  0  0
    4.1807    1.3422   -3.9150 H   0  0  0  0  0  0  0  0  0  0  0  0
    4.1865    0.4062   -5.5002 H   0  0  0  0  0  0  0  0  0  0  0  0
    2.3673   -1.0964   -4.6407 H   0  0  0  0  0  0  0  0  0  0  0  0
    2.3498   -0.1692   -3.0465 H   0  0  0  0  0  0  0  0  0  0  0  0
    3.6191   -3.0151   -2.5599 H   0  0  0  0  0  0  0  0  0  0  0  0
    4.6382   -4.0461   -1.6278 H   0  0  0  0  0  0  0  0  0  0  0  0
    2.6465   -2.0158   -0.6208 H   0  0  0  0  0  0  0  0  0  0  0  0
    2.5623   -3.7342   -0.4234 H   0  0  0  0  0  0  0  0  0  0  0  0
  1  2  1  0
  1 26  1  0
  2  7  2  0
  2  3  1  0
  3  4  2  0
  3 27  1  0
  4  5  1  0
  4 28  1  0
  5 17  1  0
  5  6  2  0
  6 25  1  0
  6  7  1  0
  7  8  1  0
  8  9  1  0
  9 25  1  0
  9 10  1  0
  9 29  1  1
 10 11  1  0
 10 12  1  0
 10 30  1  6
 11 31  1  0
 12 13  2  0
 12 32  1  0
 13 14  1  0
 13 33  1  0
 14 25  1  0
 14 15  1  1
 14 16  1  0
 15 34  1  0
 16 17  1  0
 16 18  1  0
 16 35  1  6
 17 36  1  0
 17 37  1  0
 18 19  1  0
 18 23  1  0
 19 20  1  0
 19 38  1  0
 19 39  1  0
 20 22  1  0
 20 21  1  0
 20 40  1  0
 21 22  1  0
 21 41  1  0
 21 42  1  0
 22 43  1  0
 22 44  1  0
 23 24  1  0
 23 45  1  0
 23 46  1  0
 25 24  1  6
 24 47  1  0
 24 48  1  0
M  END
>  <i_m_ct_stereo_status>  (218) 
1

>  <s_m_source_file>  (218) 
/var/tmp/pbs.5076255.sched01/tmp9n4xeji_/82rcfztp6i.sdf

>  <i_m_source_file_index>  (218) 
14

>  <i_lp_mmshare_version>  (218) 
48012

>  <i_f3d_flags>  (218) 
0

>  <s_epik_input>  (218) 
W0NAXTEyM2M0YzVbY0hdW2NIXWMoW09IXSljNE9bQ0BASF0xW0NAQEhdKFtPSF0pW0NIXT1bQ0hdW0NAXTIoW09IXSlbQ0BASF0oW0NIMl01KU4oW0NIMl1bQ0gyXTMpW0NIMl1bQ0hdNltDSDJdW0NIMl02

>  <s_epik_cmdline>  (218) 
J2VwaWtfcHl0aG9uJywgJy1waHQnLCAnMi4wJywgJy1waCcsICc3LjAnLCAnLXRuJywgJzgnLCAnLW1hJywgJzIwMCcsICctaW1hZScsICc8aW5maWxlLm1hZT4nLCAnLW9tYWUnLCAnPG91dGZpbGUubWFlPic=

>  <r_lp_tautomer_probability>  (218) 
1

>  <r_epik_Ionization_Penalty>  (218) 
1.51136

>  <r_epik_Ionization_Penalty_Charging>  (218) 
0

>  <r_epik_Ionization_Penalty_Neutral>  (218) 
1.51136

>  <r_epik_State_Penalty>  (218) 
1.60838

>  <r_epik_Charging_Adjusted_Penalty>  (218) 
1.60838

>  <i_epik_Tot_Q>  (218) 
0

>  <i_epik_Tot_abs_Q>  (218) 
0

>  <s_lp_Force_Field>  (218) 
OPLS3e

>  <r_lp_Energy>  (218) 
82.2747

>  <b_lp_Chiralities_Consistent>  (218) 
1

>  <s_lp_Variant>  (218) 
67:0-2

>  <s_i_glide_gridfile>  (218) 
pfpi4k_grid

>  <i_i_glide_lignum>  (218) 
14

>  <i_i_glide_rotatable_bonds>  (218) 
5

>  <r_i_docking_score>  (218) 
-3.41814

>  <r_i_glide_ligand_efficiency>  (218) 
-0.136726

>  <r_i_glide_ligand_efficiency_sa>  (218) 
-0.399789

>  <r_i_glide_ligand_efficiency_ln>  (218) 
-0.810203

>  <r_i_glide_gscore>  (218) 
-3.41814

>  <r_i_glide_lipo>  (218) 
-1.16928

>  <r_i_glide_hbond>  (218) 
0

>  <r_i_glide_metal>  (218) 
-0

>  <r_i_glide_rewards>  (218) 
-1.08136

>  <r_i_glide_evdw>  (218) 
-25.1018

>  <r_i_glide_ecoul>  (218) 
-1.58388

>  <r_i_glide_erotb>  (218) 
0.325161

>  <r_i_glide_esite>  (218) 
0

>  <r_i_glide_emodel>  (218) 
-32.101

>  <r_i_glide_energy>  (218) 
-26.6857

>  <r_i_glide_einternal>  (218) 
0.903995

>  <r_i_glide_intrahb_reward>  (218) 
-0

>  <i_i_glide_confnum>  (218) 
1

>  <i_i_glide_posenum>  (218) 
1

>  <r_i_glide_eff_state_penalty>  (218) 
0

>  <ligand_id>  (218) 
67

>  <original_smiles>  (218) 
Oc1ccc2c3c1OC1C(O)C=CC4(O)C(C2)N(CC2CC2)CCC314

>  <smiles>  (218) 
[H]Oc1c([H])c([H])c2c3c1OC1([H])C([H])(O[H])C([H])=C([H])C4(O[H])C([H])(N(C([H])([H])C5([H])C([H])([H])C5([H])[H])C([H])([H])C([H])([H])C314)C2([H])[H]

$$$$
67:1:1
     RDKit          3D

 48 53  0  0  1  0  0  0  0  0999 V2000
    3.4926   -7.0956    2.7712 O   0  0  0  0  0  0  0  0  0  0  0  0
    4.2944   -6.2313    2.0861 C   0  0  0  0  0  0  0  0  0  0  0  0
    5.5537   -6.6601    1.5799 C   0  0  0  0  0  0  0  0  0  0  0  0
    6.4222   -5.7704    0.8854 C   0  0  0  0  0  0  0  0  0  0  0  0
    6.0172   -4.4410    0.6544 C   0  0  0  0  0  0  0  0  0  0  0  0
    4.7536   -4.1198    1.1543 C   0  0  0  0  0  0  0  0  0  0  0  0
    3.8796   -4.8975    1.8868 C   0  0  0  0  0  0  0  0  0  0  0  0
    2.7535   -4.2030    2.2998 O   0  0  0  0  0  0  0  0  0  0  0  0
    3.1406   -2.8149    2.1822 C   0  0  2  0  0  0  0  0  0  0  0  0
    2.1420   -1.6387    2.0535 C   0  0  1  0  0  0  0  0  0  0  0  0
    1.6024   -1.3279    3.3244 O   0  0  0  0  0  0  0  0  0  0  0  0
    2.8568   -0.3960    1.4784 C   0  0  0  0  0  0  0  0  0  0  0  0
    4.1168   -0.3912    0.9649 C   0  0  0  0  0  0  0  0  0  0  0  0
    4.9980   -1.6477    0.9097 C   0  0  2  0  0  0  0  0  0  0  0  0
    5.8290   -1.5653    2.0531 O   0  0  0  0  0  0  0  0  0  0  0  0
    5.9543   -1.9571   -0.2973 C   0  0  1  0  0  0  0  0  0  0  0  0
    6.7640   -3.2774   -0.0289 C   0  0  0  0  0  0  0  0  0  0  0  0
    5.2912   -2.0589   -1.6106 N   0  0  0  0  0  0  0  0  0  0  0  0
    4.9217   -0.7763   -2.1899 C   0  0  0  0  0  0  0  0  0  0  0  0
    4.3858   -0.8561   -3.6039 C   0  0  0  0  0  0  0  0  0  0  0  0
    4.0138    0.4133   -4.3354 C   0  0  0  0  0  0  0  0  0  0  0  0
    2.9377   -0.5271   -3.8586 C   0  0  0  0  0  0  0  0  0  0  0  0
    4.2138   -3.0606   -1.6055 C   0  0  0  0  0  0  0  0  0  0  0  0
    3.2649   -2.9297   -0.4060 C   0  0  0  0  0  0  0  0  0  0  0  0
    4.0549   -2.8421    0.9480 C   0  0  1  0  0  0  0  0  0  0  0  0
    3.8483   -7.9704    2.8217 H   0  0  0  0  0  0  0  0  0  0  0  0
    5.8686   -7.6797    1.7232 H   0  0  0  0  0  0  0  0  0  0  0  0
    7.3820   -6.1158    0.5303 H   0  0  0  0  0  0  0  0  0  0  0  0
    3.7488   -2.6164    3.0682 H   0  0  0  0  0  0  0  0  0  0  0  0
    1.3239   -1.8993    1.3865 H   0  0  0  0  0  0  0  0  0  0  0  0
    2.3062   -1.0671    3.9006 H   0  0  0  0  0  0  0  0  0  0  0  0
    2.2701    0.5145    1.4809 H   0  0  0  0  0  0  0  0  0  0  0  0
    4.5356    0.5245    0.5747 H   0  0  0  0  0  0  0  0  0  0  0  0
    5.2776   -1.4681    2.8142 H   0  0  0  0  0  0  0  0  0  0  0  0
    6.6850   -1.1519   -0.3524 H   0  0  0  0  0  0  0  0  0  0  0  0
    7.6187   -3.0402    0.5989 H   0  0  0  0  0  0  0  0  0  0  0  0
    7.1813   -3.6457   -0.9681 H   0  0  0  0  0  0  0  0  0  0  0  0
    4.1908   -0.2608   -1.5721 H   0  0  0  0  0  0  0  0  0  0  0  0
    5.8088   -0.1461   -2.2231 H   0  0  0  0  0  0  0  0  0  0  0  0
    4.8235   -1.6448   -4.2149 H   0  0  0  0  0  0  0  0  0  0  0  0
    4.1596    1.3481   -3.7957 H   0  0  0  0  0  0  0  0  0  0  0  0
    4.2083    0.4542   -5.4046 H   0  0  0  0  0  0  0  0  0  0  0  0
    2.4145   -1.1186   -4.6069 H   0  0  0  0  0  0  0  0  0  0  0  0
    2.3529   -0.2382   -2.9866 H   0  0  0  0  0  0  0  0  0  0  0  0
    3.6359   -3.0181   -2.5261 H   0  0  0  0  0  0  0  0  0  0  0  0
    4.6514   -4.0613   -1.6059 H   0  0  0  0  0  0  0  0  0  0  0  0
    2.6463   -2.0510   -0.5777 H   0  0  0  0  0  0  0  0  0  0  0  0
    2.5697   -3.7707   -0.4057 H   0  0  0  0  0  0  0  0  0  0  0  0
  1  2  1  0
  1 26  1  0
  2  7  2  0
  2  3  1  0
  3  4  2  0
  3 27  1  0
  4  5  1  0
  4 28  1  0
  5 17  1  0
  5  6  2  0
  6 25  1  0
  6  7  1  0
  7  8  1  0
  8  9  1  0
  9 25  1  0
  9 10  1  0
  9 29  1  1
 10 11  1  0
 10 12  1  0
 10 30  1  6
 11 31  1  0
 12 13  2  0
 12 32  1  0
 13 14  1  0
 13 33  1  0
 14 25  1  0
 14 15  1  1
 14 16  1  0
 15 34  1  0
 16 17  1  0
 16 18  1  0
 16 35  1  6
 17 36  1  0
 17 37  1  0
 18 19  1  0
 18 23  1  0
 19 20  1  0
 19 38  1  0
 19 39  1  0
 20 22  1  0
 20 21  1  0
 20 40  1  0
 21 22  1  0
 21 41  1  0
 21 42  1  0
 22 43  1  0
 22 44  1  0
 23 24  1  0
 23 45  1  0
 23 46  1  0
 25 24  1  6
 24 47  1  0
 24 48  1  0
M  END
>  <i_m_ct_stereo_status>  (219) 
1

>  <s_m_source_file>  (219) 
/var/tmp/pbs.5076255.sched01/tmp9n4xeji_/82rcfztp6i.sdf

>  <i_m_source_file_index>  (219) 
14

>  <i_lp_mmshare_version>  (219) 
48012

>  <i_f3d_flags>  (219) 
0

>  <s_epik_input>  (219) 
W0NAXTEyM2M0YzVbY0hdW2NIXWMoW09IXSljNE9bQ0BASF0xW0NAQEhdKFtPSF0pW0NIXT1bQ0hdW0NAXTIoW09IXSlbQ0BASF0oW0NIMl01KU4oW0NIMl1bQ0gyXTMpW0NIMl1bQ0hdNltDSDJdW0NIMl02

>  <s_epik_cmdline>  (219) 
J2VwaWtfcHl0aG9uJywgJy1waHQnLCAnMi4wJywgJy1waCcsICc3LjAnLCAnLXRuJywgJzgnLCAnLW1hJywgJzIwMCcsICctaW1hZScsICc8aW5maWxlLm1hZT4nLCAnLW9tYWUnLCAnPG91dGZpbGUubWFlPic=

>  <r_lp_tautomer_probability>  (219) 
1

>  <r_epik_Ionization_Penalty>  (219) 
1.51136

>  <r_epik_Ionization_Penalty_Charging>  (219) 
0

>  <r_epik_Ionization_Penalty_Neutral>  (219) 
1.51136

>  <r_epik_State_Penalty>  (219) 
1.60838

>  <r_epik_Charging_Adjusted_Penalty>  (219) 
1.60838

>  <i_epik_Tot_Q>  (219) 
0

>  <i_epik_Tot_abs_Q>  (219) 
0

>  <s_lp_Force_Field>  (219) 
OPLS3e

>  <r_lp_Energy>  (219) 
82.2747

>  <b_lp_Chiralities_Consistent>  (219) 
1

>  <s_lp_Variant>  (219) 
67:0-2

>  <s_i_glide_gridfile>  (219) 
pfpi4k_grid

>  <i_i_glide_lignum>  (219) 
14

>  <i_i_glide_rotatable_bonds>  (219) 
5

>  <r_i_docking_score>  (219) 
-3.2156

>  <r_i_glide_ligand_efficiency>  (219) 
-0.128624

>  <r_i_glide_ligand_efficiency_sa>  (219) 
-0.376098

>  <r_i_glide_ligand_efficiency_ln>  (219) 
-0.762193

>  <r_i_glide_gscore>  (219) 
-3.2156

>  <r_i_glide_lipo>  (219) 
-1.12847

>  <r_i_glide_hbond>  (219) 
0

>  <r_i_glide_metal>  (219) 
-0

>  <r_i_glide_rewards>  (219) 
-1.08136

>  <r_i_glide_evdw>  (219) 
-24.9636

>  <r_i_glide_ecoul>  (219) 
-0.551651

>  <r_i_glide_erotb>  (219) 
0.325161

>  <r_i_glide_esite>  (219) 
0

>  <r_i_glide_emodel>  (219) 
-30.7454

>  <r_i_glide_energy>  (219) 
-25.5152

>  <r_i_glide_einternal>  (219) 
0.552329

>  <r_i_glide_intrahb_reward>  (219) 
-0

>  <i_i_glide_confnum>  (219) 
3

>  <i_i_glide_posenum>  (219) 
23

>  <r_i_glide_eff_state_penalty>  (219) 
0

>  <ligand_id>  (219) 
67

>  <original_smiles>  (219) 
Oc1ccc2c3c1OC1C(O)C=CC4(O)C(C2)N(CC2CC2)CCC314

>  <smiles>  (219) 
[H]Oc1c([H])c([H])c2c3c1OC1([H])C([H])(O[H])C([H])=C([H])C4(O[H])C([H])(N(C([H])([H])C5([H])C([H])([H])C5([H])[H])C([H])([H])C([H])([H])C314)C2([H])[H]

$$$$
67:1:2
     RDKit          3D

 48 53  0  0  1  0  0  0  0  0999 V2000
    2.0744   -7.1817    3.3150 O   0  0  0  0  0  0  0  0  0  0  0  0
    3.0601   -6.5178    2.6467 C   0  0  0  0  0  0  0  0  0  0  0  0
    4.2477   -7.1941    2.2458 C   0  0  0  0  0  0  0  0  0  0  0  0
    5.3004   -6.5166    1.5668 C   0  0  0  0  0  0  0  0  0  0  0  0
    5.1601   -5.1516    1.2479 C   0  0  0  0  0  0  0  0  0  0  0  0
    3.9511   -4.5811    1.6506 C   0  0  0  0  0  0  0  0  0  0  0  0
    2.9083   -5.1436    2.3602 C   0  0  0  0  0  0  0  0  0  0  0  0
    1.9065   -4.2384    2.6624 O   0  0  0  0  0  0  0  0  0  0  0  0
    2.5450   -2.9496    2.5025 C   0  0  2  0  0  0  0  0  0  0  0  0
    1.7879   -1.6248    2.2491 C   0  0  1  0  0  0  0  0  0  0  0  0
    1.2660   -1.1495    3.4740 O   0  0  0  0  0  0  0  0  0  0  0  0
    2.7458   -0.5658    1.6608 C   0  0  0  0  0  0  0  0  0  0  0  0
    4.0116   -0.8150    1.2349 C   0  0  0  0  0  0  0  0  0  0  0  0
    4.6538   -2.2093    1.2985 C   0  0  2  0  0  0  0  0  0  0  0  0
    5.4184   -2.2102    2.4911 O   0  0  0  0  0  0  0  0  0  0  0  0
    5.6074   -2.7535    0.1737 C   0  0  1  0  0  0  0  0  0  0  0  0
    6.1405   -4.1789    0.5629 C   0  0  0  0  0  0  0  0  0  0  0  0
    5.0092   -2.8130   -1.1725 N   0  0  0  0  0  0  0  0  0  0  0  0
    4.9087   -1.5208   -1.8357 C   0  0  0  0  0  0  0  0  0  0  0  0
    4.4576   -1.5928   -3.2772 C   0  0  0  0  0  0  0  0  0  0  0  0
    3.9874   -0.3376   -3.9759 C   0  0  0  0  0  0  0  0  0  0  0  0
    2.9933   -1.4047   -3.5947 C   0  0  0  0  0  0  0  0  0  0  0  0
    3.7765   -3.6132   -1.1829 C   0  0  0  0  0  0  0  0  0  0  0  0
    2.7991   -3.2456   -0.0596 C   0  0  0  0  0  0  0  0  0  0  0  0
    3.5106   -3.2142    1.3363 C   0  0  1  0  0  0  0  0  0  0  0  0
    2.2723   -8.0963    3.4466 H   0  0  0  0  0  0  0  0  0  0  0  0
    4.3636   -8.2421    2.4601 H   0  0  0  0  0  0  0  0  0  0  0  0
    6.2001   -7.0465    1.2947 H   0  0  0  0  0  0  0  0  0  0  0  0
    3.1253   -2.8068    3.4182 H   0  0  0  0  0  0  0  0  0  0  0  0
    0.9733   -1.7813    1.5469 H   0  0  0  0  0  0  0  0  0  0  0  0
    0.7842   -0.3534    3.3072 H   0  0  0  0  0  0  0  0  0  0  0  0
    2.3366    0.4346    1.5800 H   0  0  0  0  0  0  0  0  0  0  0  0
    4.6106   -0.0134    0.8307 H   0  0  0  0  0  0  0  0  0  0  0  0
    4.8504   -1.9721    3.2076 H   0  0  0  0  0  0  0  0  0  0  0  0
    6.4786   -2.1010    0.1181 H   0  0  0  0  0  0  0  0  0  0  0  0
    6.9866   -4.0622    1.2338 H   0  0  0  0  0  0  0  0  0  0  0  0
    6.5372   -4.6708   -0.3237 H   0  0  0  0  0  0  0  0  0  0  0  0
    4.2344   -0.8545   -1.3025 H   0  0  0  0  0  0  0  0  0  0  0  0
    5.8915   -1.0494   -1.8367 H   0  0  0  0  0  0  0  0  0  0  0  0
    5.0004   -2.3152   -3.8888 H   0  0  0  0  0  0  0  0  0  0  0  0
    3.9869    0.5825   -3.3929 H   0  0  0  0  0  0  0  0  0  0  0  0
    4.2139   -0.2243   -5.0337 H   0  0  0  0  0  0  0  0  0  0  0  0
    2.5764   -2.0323   -4.3785 H   0  0  0  0  0  0  0  0  0  0  0  0
    2.3380   -1.2260   -2.7423 H   0  0  0  0  0  0  0  0  0  0  0  0
    3.2680   -3.5444   -2.1424 H   0  0  0  0  0  0  0  0  0  0  0  0
    4.0343   -4.6675   -1.0969 H   0  0  0  0  0  0  0  0  0  0  0  0
    2.3759   -2.2753   -0.3109 H   0  0  0  0  0  0  0  0  0  0  0  0
    1.9681   -3.9521   -0.0698 H   0  0  0  0  0  0  0  0  0  0  0  0
  1  2  1  0
  1 26  1  0
  2  7  2  0
  2  3  1  0
  3  4  2  0
  3 27  1  0
  4  5  1  0
  4 28  1  0
  5 17  1  0
  5  6  2  0
  6 25  1  0
  6  7  1  0
  7  8  1  0
  8  9  1  0
  9 25  1  0
  9 10  1  0
  9 29  1  1
 10 11  1  0
 10 12  1  0
 10 30  1  6
 11 31  1  0
 12 13  2  0
 12 32  1  0
 13 14  1  0
 13 33  1  0
 14 25  1  0
 14 15  1  1
 14 16  1  0
 15 34  1  0
 16 17  1  0
 16 18  1  0
 16 35  1  6
 17 36  1  0
 17 37  1  0
 18 19  1  0
 18 23  1  0
 19 20  1  0
 19 38  1  0
 19 39  1  0
 20 22  1  0
 20 21  1  0
 20 40  1  0
 21 22  1  0
 21 41  1  0
 21 42  1  0
 22 43  1  0
 22 44  1  0
 23 24  1  0
 23 45  1  0
 23 46  1  0
 25 24  1  6
 24 47  1  0
 24 48  1  0
M  END
>  <i_m_ct_stereo_status>  (220) 
1

>  <s_m_source_file>  (220) 
/var/tmp/pbs.5076255.sched01/tmp9n4xeji_/82rcfztp6i.sdf

>  <i_m_source_file_index>  (220) 
14

>  <i_lp_mmshare_version>  (220) 
48012

>  <i_f3d_flags>  (220) 
0

>  <s_epik_input>  (220) 
W0NAXTEyM2M0YzVbY0hdW2NIXWMoW09IXSljNE9bQ0BASF0xW0NAQEhdKFtPSF0pW0NIXT1bQ0hdW0NAXTIoW09IXSlbQ0BASF0oW0NIMl01KU4oW0NIMl1bQ0gyXTMpW0NIMl1bQ0hdNltDSDJdW0NIMl02

>  <s_epik_cmdline>  (220) 
J2VwaWtfcHl0aG9uJywgJy1waHQnLCAnMi4wJywgJy1waCcsICc3LjAnLCAnLXRuJywgJzgnLCAnLW1hJywgJzIwMCcsICctaW1hZScsICc8aW5maWxlLm1hZT4nLCAnLW9tYWUnLCAnPG91dGZpbGUubWFlPic=

>  <r_lp_tautomer_probability>  (220) 
1

>  <r_epik_Ionization_Penalty>  (220) 
1.51136

>  <r_epik_Ionization_Penalty_Charging>  (220) 
0

>  <r_epik_Ionization_Penalty_Neutral>  (220) 
1.51136

>  <r_epik_State_Penalty>  (220) 
1.60838

>  <r_epik_Charging_Adjusted_Penalty>  (220) 
1.60838

>  <i_epik_Tot_Q>  (220) 
0

>  <i_epik_Tot_abs_Q>  (220) 
0

>  <s_lp_Force_Field>  (220) 
OPLS3e

>  <r_lp_Energy>  (220) 
82.2747

>  <b_lp_Chiralities_Consistent>  (220) 
1

>  <s_lp_Variant>  (220) 
67:0-2

>  <s_i_glide_gridfile>  (220) 
pfpi4k_grid

>  <i_i_glide_lignum>  (220) 
14

>  <i_i_glide_rotatable_bonds>  (220) 
5

>  <r_i_docking_score>  (220) 
-3.06015

>  <r_i_glide_ligand_efficiency>  (220) 
-0.122406

>  <r_i_glide_ligand_efficiency_sa>  (220) 
-0.357917

>  <r_i_glide_ligand_efficiency_ln>  (220) 
-0.725347

>  <r_i_glide_gscore>  (220) 
-3.06015

>  <r_i_glide_lipo>  (220) 
-0.878863

>  <r_i_glide_hbond>  (220) 
0

>  <r_i_glide_metal>  (220) 
-0

>  <r_i_glide_rewards>  (220) 
-1.08136

>  <r_i_glide_evdw>  (220) 
-23.4587

>  <r_i_glide_ecoul>  (220) 
-1.68104

>  <r_i_glide_erotb>  (220) 
0.325161

>  <r_i_glide_esite>  (220) 
0

>  <r_i_glide_emodel>  (220) 
-29.8665

>  <r_i_glide_energy>  (220) 
-25.1397

>  <r_i_glide_einternal>  (220) 
0.833867

>  <r_i_glide_intrahb_reward>  (220) 
-0

>  <i_i_glide_confnum>  (220) 
3

>  <i_i_glide_posenum>  (220) 
39

>  <r_i_glide_eff_state_penalty>  (220) 
0

>  <ligand_id>  (220) 
67

>  <original_smiles>  (220) 
Oc1ccc2c3c1OC1C(O)C=CC4(O)C(C2)N(CC2CC2)CCC314

>  <smiles>  (220) 
[H]Oc1c([H])c([H])c2c3c1OC1([H])C([H])(O[H])C([H])=C([H])C4(O[H])C([H])(N(C([H])([H])C5([H])C([H])([H])C5([H])[H])C([H])([H])C([H])([H])C314)C2([H])[H]

$$$$
67:2:0
     RDKit          3D

 48 53  0  0  1  0  0  0  0  0999 V2000
    0.5143   -5.2574    4.2606 O   0  0  0  0  0  0  0  0  0  0  0  0
    1.4395   -5.4198    3.2713 C   0  0  0  0  0  0  0  0  0  0  0  0
    1.5898   -6.6828    2.6378 C   0  0  0  0  0  0  0  0  0  0  0  0
    2.5520   -6.9160    1.6206 C   0  0  0  0  0  0  0  0  0  0  0  0
    3.3693   -5.8392    1.2001 C   0  0  0  0  0  0  0  0  0  0  0  0
    3.1382   -4.6351    1.8573 C   0  0  0  0  0  0  0  0  0  0  0  0
    2.2630   -4.3401    2.8870 C   0  0  0  0  0  0  0  0  0  0  0  0
    2.3725   -3.0389    3.3255 O   0  0  0  0  0  0  0  0  0  0  0  0
    3.6639   -2.5964    2.8406 C   0  0  2  0  0  0  0  0  0  0  0  0
    4.0302   -1.1078    2.6177 C   0  0  1  0  0  0  0  0  0  0  0  0
    4.4119   -0.5341    3.8521 O   0  0  0  0  0  0  0  0  0  0  0  0
    5.2208   -1.0013    1.6415 C   0  0  0  0  0  0  0  0  0  0  0  0
    5.7326   -2.0375    0.9238 C   0  0  0  0  0  0  0  0  0  0  0  0
    5.1834   -3.4704    1.0043 C   0  0  2  0  0  0  0  0  0  0  0  0
    6.0340   -4.1612    1.9026 O   0  0  0  0  0  0  0  0  0  0  0  0
    5.0791   -4.3984   -0.2596 C   0  0  1  0  0  0  0  0  0  0  0  0
    4.5124   -5.8110    0.1587 C   0  0  0  0  0  0  0  0  0  0  0  0
    4.2259   -3.8330   -1.3544 N   0  0  2  0  0  0  0  0  0  0  0  0
    4.8782   -2.7318   -2.1222 C   0  0  0  0  0  0  0  0  0  0  0  0
    4.2326   -2.4788   -3.4728 C   0  0  0  0  0  0  0  0  0  0  0  0
    4.2181   -1.0741   -4.0543 C   0  0  0  0  0  0  0  0  0  0  0  0
    2.9465   -1.6973   -3.5892 C   0  0  0  0  0  0  0  0  0  0  0  0
    2.8420   -3.5391   -0.8853 C   0  0  0  0  0  0  0  0  0  0  0  0
    2.8662   -2.6934    0.3930 C   0  0  0  0  0  0  0  0  0  0  0  0
    3.7522   -3.3418    1.5070 C   0  0  1  0  0  0  0  0  0  0  0  0
    0.9597   -7.4992    2.9429 H   0  0  0  0  0  0  0  0  0  0  0  0
    2.6646   -7.8957    1.1735 H   0  0  0  0  0  0  0  0  0  0  0  0
    4.3991   -3.0133    3.5343 H   0  0  0  0  0  0  0  0  0  0  0  0
    3.1797   -0.5566    2.2102 H   0  0  0  0  0  0  0  0  0  0  0  0
    4.3553    0.4076    3.7893 H   0  0  0  0  0  0  0  0  0  0  0  0
    5.6680   -0.0208    1.5599 H   0  0  0  0  0  0  0  0  0  0  0  0
    6.5884   -1.8799    0.2886 H   0  0  0  0  0  0  0  0  0  0  0  0
    5.5902   -4.9512    2.1762 H   0  0  0  0  0  0  0  0  0  0  0  0
    6.0815   -4.5563   -0.6736 H   0  0  0  0  0  0  0  0  0  0  0  0
    5.3337   -6.3874    0.5816 H   0  0  0  0  0  0  0  0  0  0  0  0
    4.2177   -6.3647   -0.7306 H   0  0  0  0  0  0  0  0  0  0  0  0
    4.8587   -1.8051   -1.5505 H   0  0  0  0  0  0  0  0  0  0  0  0
    5.9328   -2.9722   -2.3017 H   0  0  0  0  0  0  0  0  0  0  0  0
    4.3984   -3.2854   -4.1914 H   0  0  0  0  0  0  0  0  0  0  0  0
    4.6067   -0.2645   -3.4449 H   0  0  0  0  0  0  0  0  0  0  0  0
    4.3213   -0.9399   -5.1242 H   0  0  0  0  0  0  0  0  0  0  0  0
    2.2376   -2.0631   -4.3215 H   0  0  0  0  0  0  0  0  0  0  0  0
    2.5148   -1.2107   -2.7173 H   0  0  0  0  0  0  0  0  0  0  0  0
    2.2170   -3.0807   -1.6464 H   0  0  0  0  0  0  0  0  0  0  0  0
    2.3261   -4.4843   -0.7074 H   0  0  0  0  0  0  0  0  0  0  0  0
    3.1888   -1.6879    0.1230 H   0  0  0  0  0  0  0  0  0  0  0  0
    1.8433   -2.5644    0.7377 H   0  0  0  0  0  0  0  0  0  0  0  0
    4.1103   -4.5921   -2.0185 H   0  0  0  0  0  0  0  0  0  0  0  0
  1  2  1  0
  2  7  2  0
  2  3  1  0
  3  4  2  0
  3 26  1  0
  4  5  1  0
  4 27  1  0
  5 17  1  0
  5  6  2  0
  6 25  1  0
  6  7  1  0
  7  8  1  0
  8  9  1  0
  9 25  1  0
  9 10  1  0
  9 28  1  1
 10 11  1  0
 10 12  1  0
 10 29  1  6
 11 30  1  0
 12 13  2  0
 12 31  1  0
 13 14  1  0
 13 32  1  0
 14 25  1  0
 14 15  1  1
 14 16  1  0
 15 33  1  0
 16 17  1  0
 16 18  1  0
 16 34  1  6
 17 35  1  0
 17 36  1  0
 18 19  1  0
 18 23  1  0
 18 48  1  6
 19 20  1  0
 19 37  1  0
 19 38  1  0
 20 22  1  0
 20 21  1  0
 20 39  1  0
 21 22  1  0
 21 40  1  0
 21 41  1  0
 22 42  1  0
 22 43  1  0
 23 24  1  0
 23 44  1  0
 23 45  1  0
 25 24  1  6
 24 46  1  0
 24 47  1  0
M  CHG  2   1  -1  18   1
M  END
>  <i_m_ct_stereo_status>  (221) 
1

>  <s_m_source_file>  (221) 
/var/tmp/pbs.5076255.sched01/tmp9n4xeji_/82rcfztp6i.sdf

>  <i_m_source_file_index>  (221) 
15

>  <i_lp_mmshare_version>  (221) 
48012

>  <i_f3d_flags>  (221) 
0

>  <s_epik_input>  (221) 
W0NAXTEyM2M0YzVbY0hdW2NIXWMoW09IXSljNE9bQ0BASF0xW0NAQEhdKFtPSF0pW0NIXT1bQ0hdW0NAXTIoW09IXSlbQ0BASF0oW0NIMl01KU4oW0NIMl1bQ0gyXTMpW0NIMl1bQ0hdNltDSDJdW0NIMl02

>  <s_epik_cmdline>  (221) 
J2VwaWtfcHl0aG9uJywgJy1waHQnLCAnMi4wJywgJy1waCcsICc3LjAnLCAnLXRuJywgJzgnLCAnLW1hJywgJzIwMCcsICctaW1hZScsICc8aW5maWxlLm1hZT4nLCAnLW9tYWUnLCAnPG91dGZpbGUubWFlPic=

>  <r_epik_Ionization_Penalty>  (221) 
2.41124

>  <r_epik_Ionization_Penalty_Charging>  (221) 
2.4112

>  <r_epik_Ionization_Penalty_Neutral>  (221) 
4.46096e-05

>  <r_epik_State_Penalty>  (221) 
2.56355

>  <r_epik_Charging_Adjusted_Penalty>  (221) 
4.97475

>  <i_epik_Tot_Q>  (221) 
0

>  <i_epik_Tot_abs_Q>  (221) 
2

>  <s_lp_Force_Field>  (221) 
OPLS3e

>  <r_lp_Energy>  (221) 
72.5443

>  <b_lp_Chiralities_Consistent>  (221) 
1

>  <s_lp_Variant>  (221) 
67:0-3

>  <s_i_glide_gridfile>  (221) 
pfpi4k_grid

>  <i_i_glide_lignum>  (221) 
15

>  <i_i_glide_rotatable_bonds>  (221) 
4

>  <r_i_docking_score>  (221) 
-3.5647

>  <r_i_glide_ligand_efficiency>  (221) 
-0.142588

>  <r_i_glide_ligand_efficiency_sa>  (221) 
-0.41693

>  <r_i_glide_ligand_efficiency_ln>  (221) 
-0.84494

>  <r_i_glide_gscore>  (221) 
-3.5647

>  <r_i_glide_lipo>  (221) 
-0.927514

>  <r_i_glide_hbond>  (221) 
0

>  <r_i_glide_metal>  (221) 
-0

>  <r_i_glide_rewards>  (221) 
-1.08136

>  <r_i_glide_evdw>  (221) 
-27.349

>  <r_i_glide_ecoul>  (221) 
-3.22406

>  <r_i_glide_erotb>  (221) 
0.325161

>  <r_i_glide_esite>  (221) 
-0.029926

>  <r_i_glide_emodel>  (221) 
-38.2455

>  <r_i_glide_energy>  (221) 
-30.5731

>  <r_i_glide_einternal>  (221) 
1.42432

>  <r_i_glide_intrahb_reward>  (221) 
-0

>  <i_i_glide_confnum>  (221) 
1

>  <i_i_glide_posenum>  (221) 
12

>  <r_i_glide_eff_state_penalty>  (221) 
0

>  <ligand_id>  (221) 
67

>  <original_smiles>  (221) 
Oc1ccc2c3c1OC1C(O)C=CC4(O)C(C2)N(CC2CC2)CCC314

>  <smiles>  (221) 
[H]OC1([H])C([H])=C([H])C2(O[H])C34c5c(c([O-])c([H])c([H])c5C([H])([H])C2([H])[N+]([H])(C([H])([H])C2([H])C([H])([H])C2([H])[H])C([H])([H])C3([H])[H])OC14[H]

$$$$
67:2:1
     RDKit          3D

 48 53  0  0  1  0  0  0  0  0999 V2000
    0.5214   -5.2565    4.2610 O   0  0  0  0  0  0  0  0  0  0  0  0
    1.4442   -5.4202    3.2701 C   0  0  0  0  0  0  0  0  0  0  0  0
    1.5928   -6.6832    2.6354 C   0  0  0  0  0  0  0  0  0  0  0  0
    2.5524   -6.9148    1.6165 C   0  0  0  0  0  0  0  0  0  0  0  0
    3.3689   -5.8374    1.1952 C   0  0  0  0  0  0  0  0  0  0  0  0
    3.1390   -4.6334    1.8538 C   0  0  0  0  0  0  0  0  0  0  0  0
    2.2668   -4.3404    2.8852 C   0  0  0  0  0  0  0  0  0  0  0  0
    2.3758   -3.0394    3.3249 O   0  0  0  0  0  0  0  0  0  0  0  0
    3.6652   -2.5952    2.8371 C   0  0  2  0  0  0  0  0  0  0  0  0
    4.0374   -1.1074    2.6143 C   0  0  1  0  0  0  0  0  0  0  0  0
    4.4282   -0.5408    3.8482 O   0  0  0  0  0  0  0  0  0  0  0  0
    5.2275   -0.9994    1.6369 C   0  0  0  0  0  0  0  0  0  0  0  0
    5.7389   -2.0356    0.9194 C   0  0  0  0  0  0  0  0  0  0  0  0
    5.1828   -3.4662    1.0012 C   0  0  2  0  0  0  0  0  0  0  0  0
    6.0212   -4.1520    1.9098 O   0  0  0  0  0  0  0  0  0  0  0  0
    5.0820   -4.3971   -0.2604 C   0  0  1  0  0  0  0  0  0  0  0  0
    4.5148   -5.8091    0.1577 C   0  0  0  0  0  0  0  0  0  0  0  0
    4.2283   -3.8324   -1.3555 N   0  0  2  0  0  0  0  0  0  0  0  0
    4.8792   -2.7319   -2.1260 C   0  0  0  0  0  0  0  0  0  0  0  0
    4.2295   -2.4755   -3.4764 C   0  0  0  0  0  0  0  0  0  0  0  0
    4.2143   -1.0696   -4.0565 C   0  0  0  0  0  0  0  0  0  0  0  0
    2.9428   -1.6944   -3.5919 C   0  0  0  0  0  0  0  0  0  0  0  0
    2.8440   -3.5385   -0.8872 C   0  0  0  0  0  0  0  0  0  0  0  0
    2.8689   -2.6916    0.3903 C   0  0  0  0  0  0  0  0  0  0  0  0
    3.7531   -3.3396    1.5032 C   0  0  1  0  0  0  0  0  0  0  0  0
    0.9638   -7.4998    2.9419 H   0  0  0  0  0  0  0  0  0  0  0  0
    2.6667   -7.8948    1.1699 H   0  0  0  0  0  0  0  0  0  0  0  0
    4.3974   -3.0127    3.5333 H   0  0  0  0  0  0  0  0  0  0  0  0
    3.1867   -0.5541    2.2102 H   0  0  0  0  0  0  0  0  0  0  0  0
    4.3676    0.4009    3.7898 H   0  0  0  0  0  0  0  0  0  0  0  0
    5.6749   -0.0182    1.5546 H   0  0  0  0  0  0  0  0  0  0  0  0
    6.5928   -1.8791    0.2792 H   0  0  0  0  0  0  0  0  0  0  0  0
    5.9467   -3.7261    2.7498 H   0  0  0  0  0  0  0  0  0  0  0  0
    6.0845   -4.5570   -0.6738 H   0  0  0  0  0  0  0  0  0  0  0  0
    5.3361   -6.3835    0.5841 H   0  0  0  0  0  0  0  0  0  0  0  0
    4.2222   -6.3626   -0.7327 H   0  0  0  0  0  0  0  0  0  0  0  0
    4.8627   -1.8056   -1.5534 H   0  0  0  0  0  0  0  0  0  0  0  0
    5.9332   -2.9746   -2.3092 H   0  0  0  0  0  0  0  0  0  0  0  0
    4.3925   -3.2818   -4.1953 H   0  0  0  0  0  0  0  0  0  0  0  0
    4.6057   -0.2619   -3.4445 H   0  0  0  0  0  0  0  0  0  0  0  0
    4.3157   -0.9341   -5.1265 H   0  0  0  0  0  0  0  0  0  0  0  0
    2.2381   -2.0519   -4.3353 H   0  0  0  0  0  0  0  0  0  0  0  0
    2.5143   -1.2094   -2.7155 H   0  0  0  0  0  0  0  0  0  0  0  0
    2.2195   -3.0792   -1.6485 H   0  0  0  0  0  0  0  0  0  0  0  0
    2.3280   -4.4837   -0.7084 H   0  0  0  0  0  0  0  0  0  0  0  0
    3.1932   -1.6869    0.1202 H   0  0  0  0  0  0  0  0  0  0  0  0
    1.8469   -2.5635    0.7365 H   0  0  0  0  0  0  0  0  0  0  0  0
    4.1126   -4.5930   -2.0179 H   0  0  0  0  0  0  0  0  0  0  0  0
  1  2  1  0
  2  7  2  0
  2  3  1  0
  3  4  2  0
  3 26  1  0
  4  5  1  0
  4 27  1  0
  5 17  1  0
  5  6  2  0
  6 25  1  0
  6  7  1  0
  7  8  1  0
  8  9  1  0
  9 25  1  0
  9 10  1  0
  9 28  1  1
 10 11  1  0
 10 12  1  0
 10 29  1  6
 11 30  1  0
 12 13  2  0
 12 31  1  0
 13 14  1  0
 13 32  1  0
 14 25  1  0
 14 15  1  1
 14 16  1  0
 15 33  1  0
 16 17  1  0
 16 18  1  0
 16 34  1  6
 17 35  1  0
 17 36  1  0
 18 19  1  0
 18 23  1  0
 18 48  1  6
 19 20  1  0
 19 37  1  0
 19 38  1  0
 20 22  1  0
 20 21  1  0
 20 39  1  0
 21 22  1  0
 21 40  1  0
 21 41  1  0
 22 42  1  0
 22 43  1  0
 23 24  1  0
 23 44  1  0
 23 45  1  0
 25 24  1  6
 24 46  1  0
 24 47  1  0
M  CHG  2   1  -1  18   1
M  END
>  <i_m_ct_stereo_status>  (222) 
1

>  <s_m_source_file>  (222) 
/var/tmp/pbs.5076255.sched01/tmp9n4xeji_/82rcfztp6i.sdf

>  <i_m_source_file_index>  (222) 
15

>  <i_lp_mmshare_version>  (222) 
48012

>  <i_f3d_flags>  (222) 
0

>  <s_epik_input>  (222) 
W0NAXTEyM2M0YzVbY0hdW2NIXWMoW09IXSljNE9bQ0BASF0xW0NAQEhdKFtPSF0pW0NIXT1bQ0hdW0NAXTIoW09IXSlbQ0BASF0oW0NIMl01KU4oW0NIMl1bQ0gyXTMpW0NIMl1bQ0hdNltDSDJdW0NIMl02

>  <s_epik_cmdline>  (222) 
J2VwaWtfcHl0aG9uJywgJy1waHQnLCAnMi4wJywgJy1waCcsICc3LjAnLCAnLXRuJywgJzgnLCAnLW1hJywgJzIwMCcsICctaW1hZScsICc8aW5maWxlLm1hZT4nLCAnLW9tYWUnLCAnPG91dGZpbGUubWFlPic=

>  <r_epik_Ionization_Penalty>  (222) 
2.41124

>  <r_epik_Ionization_Penalty_Charging>  (222) 
2.4112

>  <r_epik_Ionization_Penalty_Neutral>  (222) 
4.46096e-05

>  <r_epik_State_Penalty>  (222) 
2.56355

>  <r_epik_Charging_Adjusted_Penalty>  (222) 
4.97475

>  <i_epik_Tot_Q>  (222) 
0

>  <i_epik_Tot_abs_Q>  (222) 
2

>  <s_lp_Force_Field>  (222) 
OPLS3e

>  <r_lp_Energy>  (222) 
72.5443

>  <b_lp_Chiralities_Consistent>  (222) 
1

>  <s_lp_Variant>  (222) 
67:0-3

>  <s_i_glide_gridfile>  (222) 
pfpi4k_grid

>  <i_i_glide_lignum>  (222) 
15

>  <i_i_glide_rotatable_bonds>  (222) 
4

>  <r_i_docking_score>  (222) 
-3.52862

>  <r_i_glide_ligand_efficiency>  (222) 
-0.141145

>  <r_i_glide_ligand_efficiency_sa>  (222) 
-0.41271

>  <r_i_glide_ligand_efficiency_ln>  (222) 
-0.836388

>  <r_i_glide_gscore>  (222) 
-3.52862

>  <r_i_glide_lipo>  (222) 
-0.930977

>  <r_i_glide_hbond>  (222) 
0

>  <r_i_glide_metal>  (222) 
-0

>  <r_i_glide_rewards>  (222) 
-1.08136

>  <r_i_glide_evdw>  (222) 
-27.3201

>  <r_i_glide_ecoul>  (222) 
-2.97063

>  <r_i_glide_erotb>  (222) 
0.325161

>  <r_i_glide_esite>  (222) 
-0.0298475

>  <r_i_glide_emodel>  (222) 
-37.8898

>  <r_i_glide_energy>  (222) 
-30.2907

>  <r_i_glide_einternal>  (222) 
1.36728

>  <r_i_glide_intrahb_reward>  (222) 
-0

>  <i_i_glide_confnum>  (222) 
4

>  <i_i_glide_posenum>  (222) 
26

>  <r_i_glide_eff_state_penalty>  (222) 
0

>  <ligand_id>  (222) 
67

>  <original_smiles>  (222) 
Oc1ccc2c3c1OC1C(O)C=CC4(O)C(C2)N(CC2CC2)CCC314

>  <smiles>  (222) 
[H]OC1([H])C([H])=C([H])C2(O[H])C34c5c(c([O-])c([H])c([H])c5C([H])([H])C2([H])[N+]([H])(C([H])([H])C2([H])C([H])([H])C2([H])[H])C([H])([H])C3([H])[H])OC14[H]

$$$$
67:2:2
     RDKit          3D

 48 53  0  0  1  0  0  0  0  0999 V2000
    0.5322   -5.1861    4.3411 O   0  0  0  0  0  0  0  0  0  0  0  0
    1.4325   -5.3723    3.3332 C   0  0  0  0  0  0  0  0  0  0  0  0
    1.5299   -6.6351    2.6867 C   0  0  0  0  0  0  0  0  0  0  0  0
    2.4690   -6.8851    1.6495 C   0  0  0  0  0  0  0  0  0  0  0  0
    3.3111   -5.8343    1.2250 C   0  0  0  0  0  0  0  0  0  0  0  0
    3.1281   -4.6265    1.8954 C   0  0  0  0  0  0  0  0  0  0  0  0
    2.2832   -4.3166    2.9416 C   0  0  0  0  0  0  0  0  0  0  0  0
    2.4382   -3.0240    3.3945 O   0  0  0  0  0  0  0  0  0  0  0  0
    3.7319   -2.6165    2.8882 C   0  0  2  0  0  0  0  0  0  0  0  0
    4.1498   -1.1403    2.6769 C   0  0  1  0  0  0  0  0  0  0  0  0
    4.5582   -0.5682    3.9039 O   0  0  0  0  0  0  0  0  0  0  0  0
    5.3253   -1.0581    1.6790 C   0  0  0  0  0  0  0  0  0  0  0  0
    5.7928   -2.1020    0.9402 C   0  0  0  0  0  0  0  0  0  0  0  0
    5.1946   -3.5158    1.0188 C   0  0  2  0  0  0  0  0  0  0  0  0
    6.0281   -4.2332    1.9088 O   0  0  0  0  0  0  0  0  0  0  0  0
    5.0450   -4.4343   -0.2472 C   0  0  1  0  0  0  0  0  0  0  0  0
    4.4423   -5.8316    0.1690 C   0  0  0  0  0  0  0  0  0  0  0  0
    4.1943   -3.8347   -1.3248 N   0  0  2  0  0  0  0  0  0  0  0  0
    4.8654   -2.7468   -2.0948 C   0  0  0  0  0  0  0  0  0  0  0  0
    4.2335   -2.4967   -3.4562 C   0  0  0  0  0  0  0  0  0  0  0  0
    4.2202   -1.0931   -4.0472 C   0  0  0  0  0  0  0  0  0  0  0  0
    2.9436   -1.7192   -3.5886 C   0  0  0  0  0  0  0  0  0  0  0  0
    2.8268   -3.5022   -0.8347 C   0  0  0  0  0  0  0  0  0  0  0  0
    2.8923   -2.6673    0.4504 C   0  0  0  0  0  0  0  0  0  0  0  0
    3.7755   -3.3503    1.5440 C   0  0  1  0  0  0  0  0  0  0  0  0
    0.8830   -7.4346    2.9967 H   0  0  0  0  0  0  0  0  0  0  0  0
    2.5435   -7.8646    1.1944 H   0  0  0  0  0  0  0  0  0  0  0  0
    4.4609   -3.0672    3.5664 H   0  0  0  0  0  0  0  0  0  0  0  0
    3.3168   -0.5552    2.2834 H   0  0  0  0  0  0  0  0  0  0  0  0
    5.1745   -1.1441    4.3289 H   0  0  0  0  0  0  0  0  0  0  0  0
    5.7953   -0.0879    1.5959 H   0  0  0  0  0  0  0  0  0  0  0  0
    6.6380   -1.9628    0.2841 H   0  0  0  0  0  0  0  0  0  0  0  0
    5.9845   -3.8140    2.7534 H   0  0  0  0  0  0  0  0  0  0  0  0
    6.0350   -4.6242   -0.6777 H   0  0  0  0  0  0  0  0  0  0  0  0
    5.2497   -6.4371    0.5787 H   0  0  0  0  0  0  0  0  0  0  0  0
    4.1145   -6.3677   -0.7219 H   0  0  0  0  0  0  0  0  0  0  0  0
    4.8525   -1.8170   -1.5287 H   0  0  0  0  0  0  0  0  0  0  0  0
    5.9184   -3.0006   -2.2650 H   0  0  0  0  0  0  0  0  0  0  0  0
    4.4094   -3.3058   -4.1694 H   0  0  0  0  0  0  0  0  0  0  0  0
    4.6046   -0.2867   -3.4334 H   0  0  0  0  0  0  0  0  0  0  0  0
    4.3396   -0.9664   -5.1172 H   0  0  0  0  0  0  0  0  0  0  0  0
    2.2453   -2.0897   -4.3308 H   0  0  0  0  0  0  0  0  0  0  0  0
    2.5070   -1.2217   -2.7245 H   0  0  0  0  0  0  0  0  0  0  0  0
    2.2077   -3.0109   -1.5814 H   0  0  0  0  0  0  0  0  0  0  0  0
    2.2804   -4.4320   -0.6616 H   0  0  0  0  0  0  0  0  0  0  0  0
    3.2446   -1.6694    0.1832 H   0  0  0  0  0  0  0  0  0  0  0  0
    1.8804   -2.5082    0.8151 H   0  0  0  0  0  0  0  0  0  0  0  0
    4.0486   -4.5860   -1.9924 H   0  0  0  0  0  0  0  0  0  0  0  0
  1  2  1  0
  2  7  2  0
  2  3  1  0
  3  4  2  0
  3 26  1  0
  4  5  1  0
  4 27  1  0
  5 17  1  0
  5  6  2  0
  6 25  1  0
  6  7  1  0
  7  8  1  0
  8  9  1  0
  9 25  1  0
  9 10  1  0
  9 28  1  1
 10 11  1  0
 10 12  1  0
 10 29  1  6
 11 30  1  0
 12 13  2  0
 12 31  1  0
 13 14  1  0
 13 32  1  0
 14 25  1  0
 14 15  1  1
 14 16  1  0
 15 33  1  0
 16 17  1  0
 16 18  1  0
 16 34  1  6
 17 35  1  0
 17 36  1  0
 18 19  1  0
 18 23  1  0
 18 48  1  6
 19 20  1  0
 19 37  1  0
 19 38  1  0
 20 22  1  0
 20 21  1  0
 20 39  1  0
 21 22  1  0
 21 40  1  0
 21 41  1  0
 22 42  1  0
 22 43  1  0
 23 24  1  0
 23 44  1  0
 23 45  1  0
 25 24  1  6
 24 46  1  0
 24 47  1  0
M  CHG  2   1  -1  18   1
M  END
>  <i_m_ct_stereo_status>  (223) 
1

>  <s_m_source_file>  (223) 
/var/tmp/pbs.5076255.sched01/tmp9n4xeji_/82rcfztp6i.sdf

>  <i_m_source_file_index>  (223) 
15

>  <i_lp_mmshare_version>  (223) 
48012

>  <i_f3d_flags>  (223) 
0

>  <s_epik_input>  (223) 
W0NAXTEyM2M0YzVbY0hdW2NIXWMoW09IXSljNE9bQ0BASF0xW0NAQEhdKFtPSF0pW0NIXT1bQ0hdW0NAXTIoW09IXSlbQ0BASF0oW0NIMl01KU4oW0NIMl1bQ0gyXTMpW0NIMl1bQ0hdNltDSDJdW0NIMl02

>  <s_epik_cmdline>  (223) 
J2VwaWtfcHl0aG9uJywgJy1waHQnLCAnMi4wJywgJy1waCcsICc3LjAnLCAnLXRuJywgJzgnLCAnLW1hJywgJzIwMCcsICctaW1hZScsICc8aW5maWxlLm1hZT4nLCAnLW9tYWUnLCAnPG91dGZpbGUubWFlPic=

>  <r_epik_Ionization_Penalty>  (223) 
2.41124

>  <r_epik_Ionization_Penalty_Charging>  (223) 
2.4112

>  <r_epik_Ionization_Penalty_Neutral>  (223) 
4.46096e-05

>  <r_epik_State_Penalty>  (223) 
2.56355

>  <r_epik_Charging_Adjusted_Penalty>  (223) 
4.97475

>  <i_epik_Tot_Q>  (223) 
0

>  <i_epik_Tot_abs_Q>  (223) 
2

>  <s_lp_Force_Field>  (223) 
OPLS3e

>  <r_lp_Energy>  (223) 
72.5443

>  <b_lp_Chiralities_Consistent>  (223) 
1

>  <s_lp_Variant>  (223) 
67:0-3

>  <s_i_glide_gridfile>  (223) 
pfpi4k_grid

>  <i_i_glide_lignum>  (223) 
15

>  <i_i_glide_rotatable_bonds>  (223) 
4

>  <r_i_docking_score>  (223) 
-3.44393

>  <r_i_glide_ligand_efficiency>  (223) 
-0.137757

>  <r_i_glide_ligand_efficiency_sa>  (223) 
-0.402805

>  <r_i_glide_ligand_efficiency_ln>  (223) 
-0.816315

>  <r_i_glide_gscore>  (223) 
-3.44393

>  <r_i_glide_lipo>  (223) 
-0.913906

>  <r_i_glide_hbond>  (223) 
0

>  <r_i_glide_metal>  (223) 
-0

>  <r_i_glide_rewards>  (223) 
-1.08136

>  <r_i_glide_evdw>  (223) 
-27.3452

>  <r_i_glide_ecoul>  (223) 
-2.50974

>  <r_i_glide_erotb>  (223) 
0.325161

>  <r_i_glide_esite>  (223) 
-0.0301111

>  <r_i_glide_emodel>  (223) 
-37.441

>  <r_i_glide_energy>  (223) 
-29.8549

>  <r_i_glide_einternal>  (223) 
1.0701

>  <r_i_glide_intrahb_reward>  (223) 
-0

>  <i_i_glide_confnum>  (223) 
1

>  <i_i_glide_posenum>  (223) 
24

>  <r_i_glide_eff_state_penalty>  (223) 
0

>  <ligand_id>  (223) 
67

>  <original_smiles>  (223) 
Oc1ccc2c3c1OC1C(O)C=CC4(O)C(C2)N(CC2CC2)CCC314

>  <smiles>  (223) 
[H]OC1([H])C([H])=C([H])C2(O[H])C34c5c(c([O-])c([H])c([H])c5C([H])([H])C2([H])[N+]([H])(C([H])([H])C2([H])C([H])([H])C2([H])[H])C([H])([H])C3([H])[H])OC14[H]

$$$$
68:0:0
     RDKit          3D

 44 49  0  0  1  0  0  0  0  0999 V2000
    4.7377    0.0192    1.5315 O   0  0  0  0  0  0  0  0  0  0  0  0
    4.8380   -1.2330    2.0296 N   0  0  1  0  0  0  0  0  0  0  0  0
    4.6495   -1.1449    3.5452 C   0  0  0  0  0  0  0  0  0  0  0  0
    4.4334   -2.5057    4.2641 C   0  0  0  0  0  0  0  0  0  0  0  0
    3.5602   -3.5799    3.6137 C   0  0  0  0  0  0  0  0  0  0  0  0
    3.2147   -4.8308    4.1906 C   0  0  0  0  0  0  0  0  0  0  0  0
    2.7885   -5.9049    3.3797 C   0  0  0  0  0  0  0  0  0  0  0  0
    2.8089   -5.8046    1.9691 C   0  0  0  0  0  0  0  0  0  0  0  0
    3.1547   -4.5703    1.3718 C   0  0  0  0  0  0  0  0  0  0  0  0
    3.4364   -3.4632    2.2254 C   0  0  0  0  0  0  0  0  0  0  0  0
    3.6488   -2.0862    1.5499 C   0  0  2  0  0  0  0  0  0  0  0  0
    3.8575   -2.2944    0.0913 C   0  0  2  0  0  0  0  0  0  0  0  0
    2.9451   -3.1489   -0.8022 C   0  0  1  0  0  0  0  0  0  0  0  0
    3.0557   -3.0406   -2.3329 C   0  0  0  0  0  0  0  0  0  0  0  0
    4.4527   -3.3539   -2.9212 C   0  0  0  0  0  0  0  0  0  0  0  0
    5.6218   -2.5579   -2.2995 C   0  0  0  0  0  0  0  0  0  0  0  0
    6.0178   -2.9884   -0.8636 C   0  0  1  0  0  0  0  0  0  0  0  0
    6.6155   -1.8343    0.0538 C   0  0  0  0  0  0  0  0  0  0  0  0
    6.2537   -1.7729    1.6268 C   0  0  0  0  0  0  0  0  0  0  0  0
    4.8683   -3.4252   -0.0467 C   0  0  2  0  0  0  0  0  0  0  0  0
    3.6090   -4.3059   -0.0853 C   0  0  1  0  0  0  0  0  0  0  0  0
    5.4928   -0.6037    3.9762 H   0  0  0  0  0  0  0  0  0  0  0  0
    3.7628   -0.5319    3.7045 H   0  0  0  0  0  0  0  0  0  0  0  0
    5.4005   -2.9605    4.4954 H   0  0  0  0  0  0  0  0  0  0  0  0
    3.9754   -2.2979    5.2305 H   0  0  0  0  0  0  0  0  0  0  0  0
    3.3512   -4.9763    5.2549 H   0  0  0  0  0  0  0  0  0  0  0  0
    2.5533   -6.8603    3.8363 H   0  0  0  0  0  0  0  0  0  0  0  0
    2.6230   -6.6687    1.3479 H   0  0  0  0  0  0  0  0  0  0  0  0
    2.7561   -1.4829    1.7121 H   0  0  0  0  0  0  0  0  0  0  0  0
    4.0705   -1.3727   -0.4479 H   0  0  0  0  0  0  0  0  0  0  0  0
    1.9113   -3.0729   -0.4811 H   0  0  0  0  0  0  0  0  0  0  0  0
    2.3284   -3.7143   -2.7904 H   0  0  0  0  0  0  0  0  0  0  0  0
    2.7369   -2.0440   -2.6389 H   0  0  0  0  0  0  0  0  0  0  0  0
    4.6582   -4.4216   -2.8391 H   0  0  0  0  0  0  0  0  0  0  0  0
    4.4108   -3.1444   -3.9875 H   0  0  0  0  0  0  0  0  0  0  0  0
    6.4978   -2.6680   -2.9368 H   0  0  0  0  0  0  0  0  0  0  0  0
    5.3638   -1.4988   -2.3252 H   0  0  0  0  0  0  0  0  0  0  0  0
    6.7316   -3.8120   -0.9306 H   0  0  0  0  0  0  0  0  0  0  0  0
    7.7008   -1.8973   -0.0300 H   0  0  0  0  0  0  0  0  0  0  0  0
    6.3578   -0.8607   -0.3622 H   0  0  0  0  0  0  0  0  0  0  0  0
    6.9367   -1.0461    2.0684 H   0  0  0  0  0  0  0  0  0  0  0  0
    6.4379   -2.7059    2.1576 H   0  0  0  0  0  0  0  0  0  0  0  0
    5.3430   -3.8773    0.8186 H   0  0  0  0  0  0  0  0  0  0  0  0
    3.7219   -5.2095   -0.6704 H   0  0  0  0  0  0  0  0  0  0  0  0
  2  1  1  6
  2 11  1  0
  2 19  1  0
  2  3  1  0
  3  4  1  0
  3 22  1  0
  3 23  1  0
  4  5  1  0
  4 24  1  0
  4 25  1  0
  5 10  2  0
  5  6  1  0
  6  7  2  0
  6 26  1  0
  7  8  1  0
  7 27  1  0
  8  9  2  0
  8 28  1  0
  9 21  1  0
  9 10  1  0
 10 11  1  0
 11 12  1  0
 11 29  1  6
 12 20  1  0
 12 13  1  0
 12 30  1  6
 13 21  1  0
 13 14  1  0
 13 31  1  1
 14 15  1  0
 14 32  1  0
 14 33  1  0
 15 16  1  0
 15 34  1  0
 15 35  1  0
 16 17  1  0
 16 36  1  0
 16 37  1  0
 17 18  1  0
 17 20  1  0
 17 38  1  6
 18 19  1  0
 18 39  1  0
 18 40  1  0
 19 41  1  0
 19 42  1  0
 20 21  1  0
 20 43  1  1
 21 44  1  6
M  CHG  2   1  -1   2   1
M  END
>  <i_m_ct_stereo_status>  (224) 
1

>  <s_m_source_file>  (224) 
/var/tmp/pbs.5076255.sched01/tmp9n4xeji_/82rcfztp6i.sdf

>  <i_m_source_file_index>  (224) 
16

>  <i_lp_mmshare_version>  (224) 
48012

>  <i_f3d_flags>  (224) 
0

>  <s_epik_input>  (224) 
W08tXVtOQCtdMTJbQ0BASF0zYzRjKFtDSDJdW0NIMl0xKVtjSF1bY0hdW2NIXWM0W0NASF01W0NASF02W0NAQEhdM1tDQEBIXTVbQ0BIXShbQ0gyXVtDSDJdMilbQ0gyXVtDSDJdW0NIMl02

>  <s_epik_cmdline>  (224) 
J2VwaWtfcHl0aG9uJywgJy1waHQnLCAnMi4wJywgJy1waCcsICc3LjAnLCAnLXRuJywgJzgnLCAnLW1hJywgJzIwMCcsICctaW1hZScsICc8aW5maWxlLm1hZT4nLCAnLW9tYWUnLCAnPG91dGZpbGUubWFlPic=

>  <r_epik_Ionization_Penalty>  (224) 
0.0193996

>  <r_epik_Ionization_Penalty_Charging>  (224) 
0.0193996

>  <r_epik_Ionization_Penalty_Neutral>  (224) 
0

>  <r_epik_State_Penalty>  (224) 
0.0154918

>  <r_epik_Charging_Adjusted_Penalty>  (224) 
0.0348914

>  <i_epik_Tot_Q>  (224) 
0

>  <i_epik_Tot_abs_Q>  (224) 
2

>  <s_lp_Force_Field>  (224) 
OPLS3e

>  <r_lp_Energy>  (224) 
122.448

>  <b_lp_Chiralities_Consistent>  (224) 
1

>  <s_lp_Variant>  (224) 
68:0-1

>  <s_i_glide_gridfile>  (224) 
pfpi4k_grid

>  <i_i_glide_lignum>  (224) 
16

>  <i_i_glide_rotatable_bonds>  (224) 
0

>  <r_i_docking_score>  (224) 
-3.15406

>  <r_i_glide_ligand_efficiency>  (224) 
-0.150193

>  <r_i_glide_ligand_efficiency_sa>  (224) 
-0.414372

>  <r_i_glide_ligand_efficiency_ln>  (224) 
-0.779834

>  <r_i_glide_gscore>  (224) 
-3.15406

>  <r_i_glide_lipo>  (224) 
-0.383876

>  <r_i_glide_hbond>  (224) 
-0.0999852

>  <r_i_glide_metal>  (224) 
-0

>  <r_i_glide_rewards>  (224) 
-1.49051

>  <r_i_glide_evdw>  (224) 
-22.4376

>  <r_i_glide_ecoul>  (224) 
-0.385362

>  <r_i_glide_erotb>  (224) 
0

>  <r_i_glide_esite>  (224) 
0

>  <r_i_glide_emodel>  (224) 
-26.921

>  <r_i_glide_energy>  (224) 
-22.823

>  <r_i_glide_einternal>  (224) 
0

>  <r_i_glide_intrahb_reward>  (224) 
-0

>  <i_i_glide_confnum>  (224) 
1

>  <i_i_glide_posenum>  (224) 
8

>  <r_i_glide_eff_state_penalty>  (224) 
0

>  <ligand_id>  (224) 
68

>  <original_smiles>  (224) 
[O-][N+]12CCc3cccc4c3C1C1C3CCCC(CC2)C1C43

>  <smiles>  (224) 
[H]c1c([H])c2c3c(c1[H])C1([H])C4([H])C([H])([H])C([H])([H])C([H])([H])C5([H])C([H])([H])C([H])([H])[N+]([O-])(C([H])([H])C2([H])[H])C3([H])C4([H])C15[H]

$$$$
68:0:1
     RDKit          3D

 44 49  0  0  1  0  0  0  0  0999 V2000
    5.8869   -5.5639    1.1325 O   0  0  0  0  0  0  0  0  0  0  0  0
    5.1346   -4.7580    1.9209 N   0  0  1  0  0  0  0  0  0  0  0  0
    5.5043   -5.0583    3.3744 C   0  0  0  0  0  0  0  0  0  0  0  0
    4.9898   -4.0240    4.4154 C   0  0  0  0  0  0  0  0  0  0  0  0
    5.0197   -2.5311    4.0913 C   0  0  0  0  0  0  0  0  0  0  0  0
    4.6588   -1.4777    4.9774 C   0  0  0  0  0  0  0  0  0  0  0  0
    4.3131   -0.2043    4.4736 C   0  0  0  0  0  0  0  0  0  0  0  0
    4.1970    0.0245    3.0831 C   0  0  0  0  0  0  0  0  0  0  0  0
    4.5499   -1.0117    2.1832 C   0  0  0  0  0  0  0  0  0  0  0  0
    5.0297   -2.2365    2.7274 C   0  0  0  0  0  0  0  0  0  0  0  0
    5.5650   -3.2922    1.7239 C   0  0  2  0  0  0  0  0  0  0  0  0
    5.1294   -2.9118    0.3544 C   0  0  2  0  0  0  0  0  0  0  0  0
    5.2967   -1.5129   -0.2631 C   0  0  1  0  0  0  0  0  0  0  0  0
    5.0934   -1.3166   -1.7766 C   0  0  0  0  0  0  0  0  0  0  0  0
    3.7133   -1.7338   -2.3264 C   0  0  0  0  0  0  0  0  0  0  0  0
    3.2836   -3.1749   -1.9779 C   0  0  0  0  0  0  0  0  0  0  0  0
    2.8745   -3.3950   -0.4970 C   0  0  1  0  0  0  0  0  0  0  0  0
    3.1316   -4.8559    0.0788 C   0  0  0  0  0  0  0  0  0  0  0  0
    3.6231   -5.0620    1.6085 C   0  0  0  0  0  0  0  0  0  0  0  0
    3.6538   -2.5731    0.4488 C   0  0  2  0  0  0  0  0  0  0  0  0
    4.1791   -1.1473    0.6860 C   0  0  1  0  0  0  0  0  0  0  0  0
    5.1709   -6.0654    3.6274 H   0  0  0  0  0  0  0  0  0  0  0  0
    6.5932   -5.0658    3.4160 H   0  0  0  0  0  0  0  0  0  0  0  0
    3.9706   -4.2753    4.7151 H   0  0  0  0  0  0  0  0  0  0  0  0
    5.5904   -4.1387    5.3139 H   0  0  0  0  0  0  0  0  0  0  0  0
    4.5895   -1.6830    6.0369 H   0  0  0  0  0  0  0  0  0  0  0  0
    4.0226    0.5834    5.1605 H   0  0  0  0  0  0  0  0  0  0  0  0
    3.8003    0.9532    2.6996 H   0  0  0  0  0  0  0  0  0  0  0  0
    6.6518   -3.2841    1.7690 H   0  0  0  0  0  0  0  0  0  0  0  0
    5.4115   -3.6351   -0.4052 H   0  0  0  0  0  0  0  0  0  0  0  0
    6.2112   -1.0442    0.0805 H   0  0  0  0  0  0  0  0  0  0  0  0
    5.2522   -0.2667   -2.0265 H   0  0  0  0  0  0  0  0  0  0  0  0
    5.8747   -1.8577   -2.3107 H   0  0  0  0  0  0  0  0  0  0  0  0
    2.9478   -1.0330   -1.9912 H   0  0  0  0  0  0  0  0  0  0  0  0
    3.7518   -1.6368   -3.4091 H   0  0  0  0  0  0  0  0  0  0  0  0
    2.4377   -3.4544   -2.6054 H   0  0  0  0  0  0  0  0  0  0  0  0
    4.0889   -3.8536   -2.2568 H   0  0  0  0  0  0  0  0  0  0  0  0
    1.8176   -3.1352   -0.3943 H   0  0  0  0  0  0  0  0  0  0  0  0
    2.2022   -5.4086   -0.0452 H   0  0  0  0  0  0  0  0  0  0  0  0
    3.8415   -5.3788   -0.5576 H   0  0  0  0  0  0  0  0  0  0  0  0
    3.5269   -6.1264    1.8254 H   0  0  0  0  0  0  0  0  0  0  0  0
    3.0035   -4.5580    2.3516 H   0  0  0  0  0  0  0  0  0  0  0  0
    3.1022   -2.6847    1.3745 H   0  0  0  0  0  0  0  0  0  0  0  0
    3.5216   -0.3658    0.3425 H   0  0  0  0  0  0  0  0  0  0  0  0
  2  1  1  6
  2 11  1  0
  2 19  1  0
  2  3  1  0
  3  4  1  0
  3 22  1  0
  3 23  1  0
  4  5  1  0
  4 24  1  0
  4 25  1  0
  5 10  2  0
  5  6  1  0
  6  7  2  0
  6 26  1  0
  7  8  1  0
  7 27  1  0
  8  9  2  0
  8 28  1  0
  9 21  1  0
  9 10  1  0
 10 11  1  0
 11 12  1  0
 11 29  1  6
 12 20  1  0
 12 13  1  0
 12 30  1  6
 13 21  1  0
 13 14  1  0
 13 31  1  1
 14 15  1  0
 14 32  1  0
 14 33  1  0
 15 16  1  0
 15 34  1  0
 15 35  1  0
 16 17  1  0
 16 36  1  0
 16 37  1  0
 17 18  1  0
 17 20  1  0
 17 38  1  6
 18 19  1  0
 18 39  1  0
 18 40  1  0
 19 41  1  0
 19 42  1  0
 20 21  1  0
 20 43  1  1
 21 44  1  6
M  CHG  2   1  -1   2   1
M  END
>  <i_m_ct_stereo_status>  (225) 
1

>  <s_m_source_file>  (225) 
/var/tmp/pbs.5076255.sched01/tmp9n4xeji_/82rcfztp6i.sdf

>  <i_m_source_file_index>  (225) 
16

>  <i_lp_mmshare_version>  (225) 
48012

>  <i_f3d_flags>  (225) 
0

>  <s_epik_input>  (225) 
W08tXVtOQCtdMTJbQ0BASF0zYzRjKFtDSDJdW0NIMl0xKVtjSF1bY0hdW2NIXWM0W0NASF01W0NASF02W0NAQEhdM1tDQEBIXTVbQ0BIXShbQ0gyXVtDSDJdMilbQ0gyXVtDSDJdW0NIMl02

>  <s_epik_cmdline>  (225) 
J2VwaWtfcHl0aG9uJywgJy1waHQnLCAnMi4wJywgJy1waCcsICc3LjAnLCAnLXRuJywgJzgnLCAnLW1hJywgJzIwMCcsICctaW1hZScsICc8aW5maWxlLm1hZT4nLCAnLW9tYWUnLCAnPG91dGZpbGUubWFlPic=

>  <r_epik_Ionization_Penalty>  (225) 
0.0193996

>  <r_epik_Ionization_Penalty_Charging>  (225) 
0.0193996

>  <r_epik_Ionization_Penalty_Neutral>  (225) 
0

>  <r_epik_State_Penalty>  (225) 
0.0154918

>  <r_epik_Charging_Adjusted_Penalty>  (225) 
0.0348914

>  <i_epik_Tot_Q>  (225) 
0

>  <i_epik_Tot_abs_Q>  (225) 
2

>  <s_lp_Force_Field>  (225) 
OPLS3e

>  <r_lp_Energy>  (225) 
122.448

>  <b_lp_Chiralities_Consistent>  (225) 
1

>  <s_lp_Variant>  (225) 
68:0-1

>  <s_i_glide_gridfile>  (225) 
pfpi4k_grid

>  <i_i_glide_lignum>  (225) 
16

>  <i_i_glide_rotatable_bonds>  (225) 
0

>  <r_i_docking_score>  (225) 
-3.02343

>  <r_i_glide_ligand_efficiency>  (225) 
-0.143973

>  <r_i_glide_ligand_efficiency_sa>  (225) 
-0.39721

>  <r_i_glide_ligand_efficiency_ln>  (225) 
-0.747537

>  <r_i_glide_gscore>  (225) 
-3.02343

>  <r_i_glide_lipo>  (225) 
-0.332226

>  <r_i_glide_hbond>  (225) 
0

>  <r_i_glide_metal>  (225) 
-0

>  <r_i_glide_rewards>  (225) 
-1.49051

>  <r_i_glide_evdw>  (225) 
-21.4984

>  <r_i_glide_ecoul>  (225) 
-0.838517

>  <r_i_glide_erotb>  (225) 
0

>  <r_i_glide_esite>  (225) 
0

>  <r_i_glide_emodel>  (225) 
-26.2278

>  <r_i_glide_energy>  (225) 
-22.3369

>  <r_i_glide_einternal>  (225) 
0

>  <r_i_glide_intrahb_reward>  (225) 
-0

>  <i_i_glide_confnum>  (225) 
1

>  <i_i_glide_posenum>  (225) 
3

>  <r_i_glide_eff_state_penalty>  (225) 
0

>  <ligand_id>  (225) 
68

>  <original_smiles>  (225) 
[O-][N+]12CCc3cccc4c3C1C1C3CCCC(CC2)C1C43

>  <smiles>  (225) 
[H]c1c([H])c2c3c(c1[H])C1([H])C4([H])C([H])([H])C([H])([H])C([H])([H])C5([H])C([H])([H])C([H])([H])[N+]([O-])(C([H])([H])C2([H])[H])C3([H])C4([H])C15[H]

$$$$
68:0:2
     RDKit          3D

 44 49  0  0  1  0  0  0  0  0999 V2000
    5.4856   -3.9756    4.2759 O   0  0  0  0  0  0  0  0  0  0  0  0
    4.9123   -5.0208    3.6422 N   0  0  1  0  0  0  0  0  0  0  0  0
    4.3675   -5.9499    4.7232 C   0  0  0  0  0  0  0  0  0  0  0  0
    3.3778   -7.0340    4.2271 C   0  0  0  0  0  0  0  0  0  0  0  0
    2.3313   -6.6897    3.1607 C   0  0  0  0  0  0  0  0  0  0  0  0
    1.3276   -7.5405    2.6789 C   0  0  0  0  0  0  0  0  0  0  0  0
    0.7030   -7.2926    1.4282 C   0  0  0  0  0  0  0  0  0  0  0  0
    1.1733   -6.2539    0.5877 C   0  0  0  0  0  0  0  0  0  0  0  0
    2.1926   -5.4118    1.0332 C   0  0  0  0  0  0  0  0  0  0  0  0
    2.6880   -5.5846    2.3627 C   0  0  0  0  0  0  0  0  0  0  0  0
    3.6584   -4.5292    2.9000 C   0  0  2  0  0  0  0  0  0  0  0  0
    4.1515   -3.6979    1.7621 C   0  0  2  0  0  0  0  0  0  0  0  0
    3.2399   -3.0441    0.7045 C   0  0  1  0  0  0  0  0  0  0  0  0
    3.8178   -1.9677   -0.2401 C   0  0  0  0  0  0  0  0  0  0  0  0
    5.0281   -2.4101   -1.0921 C   0  0  0  0  0  0  0  0  0  0  0  0
    6.2080   -3.0182   -0.2956 C   0  0  0  0  0  0  0  0  0  0  0  0
    5.9449   -4.4425    0.2585 C   0  0  1  0  0  0  0  0  0  0  0  0
    6.7151   -4.8123    1.5968 C   0  0  0  0  0  0  0  0  0  0  0  0
    6.0041   -5.7148    2.7380 C   0  0  0  0  0  0  0  0  0  0  0  0
    4.5443   -4.6704    0.6621 C   0  0  2  0  0  0  0  0  0  0  0  0
    3.0958   -4.4614    0.2029 C   0  0  1  0  0  0  0  0  0  0  0  0
    5.2044   -6.3995    5.2587 H   0  0  0  0  0  0  0  0  0  0  0  0
    3.8413   -5.3117    5.4339 H   0  0  0  0  0  0  0  0  0  0  0  0
    3.9294   -7.9100    3.8733 H   0  0  0  0  0  0  0  0  0  0  0  0
    2.8073   -7.3820    5.0876 H   0  0  0  0  0  0  0  0  0  0  0  0
    1.0782   -8.4438    3.2333 H   0  0  0  0  0  0  0  0  0  0  0  0
   -0.0494   -7.9766    1.0666 H   0  0  0  0  0  0  0  0  0  0  0  0
    0.8112   -6.1638   -0.4266 H   0  0  0  0  0  0  0  0  0  0  0  0
    3.1228   -3.8915    3.6024 H   0  0  0  0  0  0  0  0  0  0  0  0
    4.8941   -2.9610    2.0501 H   0  0  0  0  0  0  0  0  0  0  0  0
    2.3011   -2.7197    1.1408 H   0  0  0  0  0  0  0  0  0  0  0  0
    3.0331   -1.6268   -0.9160 H   0  0  0  0  0  0  0  0  0  0  0  0
    4.0774   -1.0889    0.3486 H   0  0  0  0  0  0  0  0  0  0  0  0
    4.7034   -3.1121   -1.8624 H   0  0  0  0  0  0  0  0  0  0  0  0
    5.3798   -1.5293   -1.6244 H   0  0  0  0  0  0  0  0  0  0  0  0
    7.0856   -3.0599   -0.9421 H   0  0  0  0  0  0  0  0  0  0  0  0
    6.4672   -2.3319    0.5116 H   0  0  0  0  0  0  0  0  0  0  0  0
    6.1908   -5.1674   -0.5114 H   0  0  0  0  0  0  0  0  0  0  0  0
    7.6359   -5.3167    1.3020 H   0  0  0  0  0  0  0  0  0  0  0  0
    7.0461   -3.8935    2.0769 H   0  0  0  0  0  0  0  0  0  0  0  0
    6.7876   -5.9956    3.4458 H   0  0  0  0  0  0  0  0  0  0  0  0
    5.6018   -6.6596    2.3672 H   0  0  0  0  0  0  0  0  0  0  0  0
    4.5104   -5.7435    0.8065 H   0  0  0  0  0  0  0  0  0  0  0  0
    2.9329   -4.5519   -0.8596 H   0  0  0  0  0  0  0  0  0  0  0  0
  2  1  1  1
  2 11  1  0
  2 19  1  0
  2  3  1  0
  3  4  1  0
  3 22  1  0
  3 23  1  0
  4  5  1  0
  4 24  1  0
  4 25  1  0
  5 10  2  0
  5  6  1  0
  6  7  2  0
  6 26  1  0
  7  8  1  0
  7 27  1  0
  8  9  2  0
  8 28  1  0
  9 21  1  0
  9 10  1  0
 10 11  1  0
 11 12  1  0
 11 29  1  1
 12 20  1  0
 12 13  1  0
 12 30  1  1
 13 21  1  0
 13 14  1  0
 13 31  1  1
 14 15  1  0
 14 32  1  0
 14 33  1  0
 15 16  1  0
 15 34  1  0
 15 35  1  0
 16 17  1  0
 16 36  1  0
 16 37  1  0
 17 18  1  0
 17 20  1  0
 17 38  1  6
 18 19  1  0
 18 39  1  0
 18 40  1  0
 19 41  1  0
 19 42  1  0
 20 21  1  0
 20 43  1  1
 21 44  1  6
M  CHG  2   1  -1   2   1
M  END
>  <i_m_ct_stereo_status>  (226) 
1

>  <s_m_source_file>  (226) 
/var/tmp/pbs.5076255.sched01/tmp9n4xeji_/82rcfztp6i.sdf

>  <i_m_source_file_index>  (226) 
16

>  <i_lp_mmshare_version>  (226) 
48012

>  <i_f3d_flags>  (226) 
0

>  <s_epik_input>  (226) 
W08tXVtOQCtdMTJbQ0BASF0zYzRjKFtDSDJdW0NIMl0xKVtjSF1bY0hdW2NIXWM0W0NASF01W0NASF02W0NAQEhdM1tDQEBIXTVbQ0BIXShbQ0gyXVtDSDJdMilbQ0gyXVtDSDJdW0NIMl02

>  <s_epik_cmdline>  (226) 
J2VwaWtfcHl0aG9uJywgJy1waHQnLCAnMi4wJywgJy1waCcsICc3LjAnLCAnLXRuJywgJzgnLCAnLW1hJywgJzIwMCcsICctaW1hZScsICc8aW5maWxlLm1hZT4nLCAnLW9tYWUnLCAnPG91dGZpbGUubWFlPic=

>  <r_epik_Ionization_Penalty>  (226) 
0.0193996

>  <r_epik_Ionization_Penalty_Charging>  (226) 
0.0193996

>  <r_epik_Ionization_Penalty_Neutral>  (226) 
0

>  <r_epik_State_Penalty>  (226) 
0.0154918

>  <r_epik_Charging_Adjusted_Penalty>  (226) 
0.0348914

>  <i_epik_Tot_Q>  (226) 
0

>  <i_epik_Tot_abs_Q>  (226) 
2

>  <s_lp_Force_Field>  (226) 
OPLS3e

>  <r_lp_Energy>  (226) 
122.448

>  <b_lp_Chiralities_Consistent>  (226) 
1

>  <s_lp_Variant>  (226) 
68:0-1

>  <s_i_glide_gridfile>  (226) 
pfpi4k_grid

>  <i_i_glide_lignum>  (226) 
16

>  <i_i_glide_rotatable_bonds>  (226) 
0

>  <r_i_docking_score>  (226) 
-2.8343

>  <r_i_glide_ligand_efficiency>  (226) 
-0.134966

>  <r_i_glide_ligand_efficiency_sa>  (226) 
-0.372362

>  <r_i_glide_ligand_efficiency_ln>  (226) 
-0.700774

>  <r_i_glide_gscore>  (226) 
-2.8343

>  <r_i_glide_lipo>  (226) 
-0.2829

>  <r_i_glide_hbond>  (226) 
0

>  <r_i_glide_metal>  (226) 
-0

>  <r_i_glide_rewards>  (226) 
-1.49051

>  <r_i_glide_evdw>  (226) 
-17.3044

>  <r_i_glide_ecoul>  (226) 
-1.30447

>  <r_i_glide_erotb>  (226) 
0

>  <r_i_glide_esite>  (226) 
0

>  <r_i_glide_emodel>  (226) 
-22.243

>  <r_i_glide_energy>  (226) 
-18.6088

>  <r_i_glide_einternal>  (226) 
0

>  <r_i_glide_intrahb_reward>  (226) 
-0

>  <i_i_glide_confnum>  (226) 
1

>  <i_i_glide_posenum>  (226) 
2

>  <r_i_glide_eff_state_penalty>  (226) 
0

>  <ligand_id>  (226) 
68

>  <original_smiles>  (226) 
[O-][N+]12CCc3cccc4c3C1C1C3CCCC(CC2)C1C43

>  <smiles>  (226) 
[H]c1c([H])c2c3c(c1[H])C1([H])C4([H])C([H])([H])C([H])([H])C([H])([H])C5([H])C([H])([H])C([H])([H])[N+]([O-])(C([H])([H])C2([H])[H])C3([H])C4([H])C15[H]

$$$$
68:1:0
     RDKit          3D

 45 50  0  0  1  0  0  0  0  0999 V2000
    2.4729   -0.4147    2.1409 O   0  0  0  0  0  0  0  0  0  0  0  0
    3.2667   -1.6071    2.3961 N   0  0  1  0  0  0  0  0  0  0  0  0
    2.9384   -2.0152    3.7975 C   0  0  0  0  0  0  0  0  0  0  0  0
    3.3945   -3.4314    4.2262 C   0  0  0  0  0  0  0  0  0  0  0  0
    3.2866   -4.5725    3.2141 C   0  0  0  0  0  0  0  0  0  0  0  0
    3.5992   -5.9253    3.4675 C   0  0  0  0  0  0  0  0  0  0  0  0
    3.8811   -6.8133    2.4083 C   0  0  0  0  0  0  0  0  0  0  0  0
    3.9635   -6.3410    1.0798 C   0  0  0  0  0  0  0  0  0  0  0  0
    3.6520   -4.9998    0.7982 C   0  0  0  0  0  0  0  0  0  0  0  0
    3.2283   -4.1568    1.8744 C   0  0  0  0  0  0  0  0  0  0  0  0
    2.7627   -2.7194    1.5245 C   0  0  2  0  0  0  0  0  0  0  0  0
    3.1560   -2.4384    0.1143 C   0  0  2  0  0  0  0  0  0  0  0  0
    2.9023   -3.3841   -1.0780 C   0  0  1  0  0  0  0  0  0  0  0  0
    3.0752   -2.8415   -2.5078 C   0  0  0  0  0  0  0  0  0  0  0  0
    4.4651   -2.2453   -2.8381 C   0  0  0  0  0  0  0  0  0  0  0  0
    4.9656   -1.1573   -1.8592 C   0  0  0  0  0  0  0  0  0  0  0  0
    5.4095   -1.6861   -0.4671 C   0  0  1  0  0  0  0  0  0  0  0  0
    5.2163   -0.6636    0.7463 C   0  0  0  0  0  0  0  0  0  0  0  0
    4.7307   -1.1999    2.1977 C   0  0  0  0  0  0  0  0  0  0  0  0
    4.6218   -2.8457    0.0007 C   0  0  2  0  0  0  0  0  0  0  0  0
    4.0275   -4.1877   -0.4618 C   0  0  1  0  0  0  0  0  0  0  0  0
    3.2986   -1.2817    4.5220 H   0  0  0  0  0  0  0  0  0  0  0  0
    1.8509   -2.0055    3.8971 H   0  0  0  0  0  0  0  0  0  0  0  0
    4.4375   -3.3910    4.5522 H   0  0  0  0  0  0  0  0  0  0  0  0
    2.8194   -3.7335    5.1042 H   0  0  0  0  0  0  0  0  0  0  0  0
    3.6982   -6.2665    4.4906 H   0  0  0  0  0  0  0  0  0  0  0  0
    4.1478   -7.8382    2.6223 H   0  0  0  0  0  0  0  0  0  0  0  0
    4.3165   -6.9865    0.2885 H   0  0  0  0  0  0  0  0  0  0  0  0
    1.6779   -2.7200    1.5987 H   0  0  0  0  0  0  0  0  0  0  0  0
    2.9068   -1.4244   -0.2066 H   0  0  0  0  0  0  0  0  0  0  0  0
    1.9596   -3.9218   -0.9766 H   0  0  0  0  0  0  0  0  0  0  0  0
    2.8638   -3.6394   -3.2208 H   0  0  0  0  0  0  0  0  0  0  0  0
    2.3063   -2.0919   -2.6974 H   0  0  0  0  0  0  0  0  0  0  0  0
    5.2060   -3.0422   -2.9104 H   0  0  0  0  0  0  0  0  0  0  0  0
    4.4058   -1.8089   -3.8342 H   0  0  0  0  0  0  0  0  0  0  0  0
    5.8102   -0.6403   -2.3102 H   0  0  0  0  0  0  0  0  0  0  0  0
    4.1904   -0.3966   -1.7570 H   0  0  0  0  0  0  0  0  0  0  0  0
    6.4558   -1.9921   -0.5273 H   0  0  0  0  0  0  0  0  0  0  0  0
    6.1759   -0.1661    0.8872 H   0  0  0  0  0  0  0  0  0  0  0  0
    4.5415    0.1379    0.4424 H   0  0  0  0  0  0  0  0  0  0  0  0
    4.8950   -0.3684    2.8861 H   0  0  0  0  0  0  0  0  0  0  0  0
    5.3957   -1.9780    2.5788 H   0  0  0  0  0  0  0  0  0  0  0  0
    5.1905   -3.1905    0.8624 H   0  0  0  0  0  0  0  0  0  0  0  0
    4.6418   -4.7419   -1.1675 H   0  0  0  0  0  0  0  0  0  0  0  0
    2.0529   -0.6052    1.3123 H   0  0  0  0  0  0  0  0  0  0  0  0
  2  1  1  6
  1 45  1  0
  2 11  1  0
  2 19  1  0
  2  3  1  0
  3  4  1  0
  3 22  1  0
  3 23  1  0
  4  5  1  0
  4 24  1  0
  4 25  1  0
  5 10  2  0
  5  6  1  0
  6  7  2  0
  6 26  1  0
  7  8  1  0
  7 27  1  0
  8  9  2  0
  8 28  1  0
  9 21  1  0
  9 10  1  0
 10 11  1  0
 11 12  1  0
 11 29  1  6
 12 20  1  0
 12 13  1  0
 12 30  1  6
 13 21  1  0
 13 14  1  0
 13 31  1  6
 14 15  1  0
 14 32  1  0
 14 33  1  0
 15 16  1  0
 15 34  1  0
 15 35  1  0
 16 17  1  0
 16 36  1  0
 16 37  1  0
 17 18  1  0
 17 20  1  0
 17 38  1  6
 18 19  1  0
 18 39  1  0
 18 40  1  0
 19 41  1  0
 19 42  1  0
 20 21  1  0
 20 43  1  1
 21 44  1  6
M  CHG  1   2   1
M  END
>  <i_m_ct_stereo_status>  (227) 
1

>  <s_m_source_file>  (227) 
/var/tmp/pbs.5076255.sched01/tmp9n4xeji_/82rcfztp6i.sdf

>  <i_m_source_file_index>  (227) 
17

>  <i_lp_mmshare_version>  (227) 
48012

>  <i_f3d_flags>  (227) 
0

>  <s_epik_input>  (227) 
W08tXVtOQCtdMTJbQ0BASF0zYzRjKFtDSDJdW0NIMl0xKVtjSF1bY0hdW2NIXWM0W0NASF01W0NASF02W0NAQEhdM1tDQEBIXTVbQ0BIXShbQ0gyXVtDSDJdMilbQ0gyXVtDSDJdW0NIMl02

>  <s_epik_cmdline>  (227) 
J2VwaWtfcHl0aG9uJywgJy1waHQnLCAnMi4wJywgJy1waCcsICc3LjAnLCAnLXRuJywgJzgnLCAnLW1hJywgJzIwMCcsICctaW1hZScsICc8aW5maWxlLm1hZT4nLCAnLW9tYWUnLCAnPG91dGZpbGUubWFlPic=

>  <r_epik_Ionization_Penalty>  (227) 
2.03543

>  <r_epik_Ionization_Penalty_Charging>  (227) 
0

>  <r_epik_Ionization_Penalty_Neutral>  (227) 
2.03543

>  <r_epik_State_Penalty>  (227) 
2.16676

>  <r_epik_Charging_Adjusted_Penalty>  (227) 
2.16676

>  <i_epik_Tot_Q>  (227) 
1

>  <i_epik_Tot_abs_Q>  (227) 
1

>  <s_epik_Chemistry_Notes>  (227) 
This compound has a N-S or N-O group and may undergo hydrolysis at high or low pH.

>  <s_lp_Force_Field>  (227) 
OPLS3e

>  <r_lp_Energy>  (227) 
122.519

>  <b_lp_Chiralities_Consistent>  (227) 
1

>  <s_lp_Variant>  (227) 
68:0-2

>  <s_i_glide_gridfile>  (227) 
pfpi4k_grid

>  <i_i_glide_lignum>  (227) 
17

>  <i_i_glide_rotatable_bonds>  (227) 
1

>  <r_i_docking_score>  (227) 
-3.71698

>  <r_i_glide_ligand_efficiency>  (227) 
-0.176999

>  <r_i_glide_ligand_efficiency_sa>  (227) 
-0.488327

>  <r_i_glide_ligand_efficiency_ln>  (227) 
-0.919016

>  <r_i_glide_gscore>  (227) 
-3.71698

>  <r_i_glide_lipo>  (227) 
-0.477292

>  <r_i_glide_hbond>  (227) 
0

>  <r_i_glide_metal>  (227) 
-0

>  <r_i_glide_rewards>  (227) 
-1.48364

>  <r_i_glide_evdw>  (227) 
-22.8969

>  <r_i_glide_ecoul>  (227) 
-4.05897

>  <r_i_glide_erotb>  (227) 
0

>  <r_i_glide_esite>  (227) 
-0.0023611

>  <r_i_glide_emodel>  (227) 
-32.9665

>  <r_i_glide_energy>  (227) 
-26.9559

>  <r_i_glide_einternal>  (227) 
1.03495

>  <r_i_glide_intrahb_reward>  (227) 
-0

>  <i_i_glide_confnum>  (227) 
1

>  <i_i_glide_posenum>  (227) 
4

>  <r_i_glide_eff_state_penalty>  (227) 
0

>  <ligand_id>  (227) 
68

>  <original_smiles>  (227) 
[O-][N+]12CCc3cccc4c3C1C1C3CCCC(CC2)C1C43

>  <smiles>  (227) 
[H]O[N+]12C([H])([H])C([H])([H])c3c([H])c([H])c([H])c4c3C1([H])C1([H])C3([H])C([H])([H])C([H])([H])C([H])([H])C([H])(C([H])([H])C2([H])[H])C1([H])C43[H]

$$$$
68:1:1
     RDKit          3D

 45 50  0  0  1  0  0  0  0  0999 V2000
    4.5319   -2.3208    3.9220 O   0  0  0  0  0  0  0  0  0  0  0  0
    4.0601   -2.2478    2.5546 N   0  0  1  0  0  0  0  0  0  0  0  0
    4.0486   -0.7937    2.2147 C   0  0  0  0  0  0  0  0  0  0  0  0
    3.8943   -0.4496    0.7179 C   0  0  0  0  0  0  0  0  0  0  0  0
    4.6184   -1.3140   -0.3132 C   0  0  0  0  0  0  0  0  0  0  0  0
    4.6272   -1.0887   -1.7066 C   0  0  0  0  0  0  0  0  0  0  0  0
    4.9368   -2.1322   -2.6034 C   0  0  0  0  0  0  0  0  0  0  0  0
    5.1395   -3.4469   -2.1331 C   0  0  0  0  0  0  0  0  0  0  0  0
    5.1409   -3.6988   -0.7509 C   0  0  0  0  0  0  0  0  0  0  0  0
    4.9685   -2.5942    0.1429 C   0  0  0  0  0  0  0  0  0  0  0  0
    5.1028   -2.8666    1.6634 C   0  0  2  0  0  0  0  0  0  0  0  0
    5.1001   -4.3460    1.8721 C   0  0  2  0  0  0  0  0  0  0  0  0
    5.9519   -5.3525    1.0693 C   0  0  1  0  0  0  0  0  0  0  0  0
    6.0757   -6.7965    1.5844 C   0  0  0  0  0  0  0  0  0  0  0  0
    4.7423   -7.5627    1.7727 C   0  0  0  0  0  0  0  0  0  0  0  0
    3.6840   -6.8476    2.6466 C   0  0  0  0  0  0  0  0  0  0  0  0
    3.0064   -5.6249    1.9698 C   0  0  1  0  0  0  0  0  0  0  0  0
    2.5279   -4.4686    2.9637 C   0  0  0  0  0  0  0  0  0  0  0  0
    2.6764   -2.9078    2.5405 C   0  0  0  0  0  0  0  0  0  0  0  0
    3.9094   -4.8742    1.0724 C   0  0  2  0  0  0  0  0  0  0  0  0
    4.9614   -5.0573   -0.0358 C   0  0  1  0  0  0  0  0  0  0  0  0
    3.2955   -0.2538    2.7885 H   0  0  0  0  0  0  0  0  0  0  0  0
    5.0062   -0.3723    2.5257 H   0  0  0  0  0  0  0  0  0  0  0  0
    2.8323   -0.4562    0.4601 H   0  0  0  0  0  0  0  0  0  0  0  0
    4.2301    0.5767    0.5601 H   0  0  0  0  0  0  0  0  0  0  0  0
    4.3159   -0.1256   -2.0933 H   0  0  0  0  0  0  0  0  0  0  0  0
    4.9095   -1.9509   -3.6664 H   0  0  0  0  0  0  0  0  0  0  0  0
    5.2328   -4.2695   -2.8264 H   0  0  0  0  0  0  0  0  0  0  0  0
    6.0769   -2.4771    1.9586 H   0  0  0  0  0  0  0  0  0  0  0  0
    5.1559   -4.6274    2.9275 H   0  0  0  0  0  0  0  0  0  0  0  0
    6.9277   -4.9379    0.8168 H   0  0  0  0  0  0  0  0  0  0  0  0
    6.7056   -7.3649    0.9013 H   0  0  0  0  0  0  0  0  0  0  0  0
    6.6241   -6.7920    2.5259 H   0  0  0  0  0  0  0  0  0  0  0  0
    4.3109   -7.8105    0.8018 H   0  0  0  0  0  0  0  0  0  0  0  0
    4.9798   -8.5195    2.2364 H   0  0  0  0  0  0  0  0  0  0  0  0
    2.9062   -7.5625    2.9176 H   0  0  0  0  0  0  0  0  0  0  0  0
    4.1521   -6.5599    3.5887 H   0  0  0  0  0  0  0  0  0  0  0  0
    2.1579   -5.9814    1.3831 H   0  0  0  0  0  0  0  0  0  0  0  0
    1.4728   -4.6524    3.1741 H   0  0  0  0  0  0  0  0  0  0  0  0
    3.0175   -4.5997    3.9305 H   0  0  0  0  0  0  0  0  0  0  0  0
    2.0839   -2.3527    3.2682 H   0  0  0  0  0  0  0  0  0  0  0  0
    2.1711   -2.6993    1.5971 H   0  0  0  0  0  0  0  0  0  0  0  0
    3.2237   -4.2061    0.5513 H   0  0  0  0  0  0  0  0  0  0  0  0
    4.7638   -5.8810   -0.7158 H   0  0  0  0  0  0  0  0  0  0  0  0
    4.2072   -1.5113    4.2894 H   0  0  0  0  0  0  0  0  0  0  0  0
  2  1  1  1
  1 45  1  0
  2 11  1  0
  2 19  1  0
  2  3  1  0
  3  4  1  0
  3 22  1  0
  3 23  1  0
  4  5  1  0
  4 24  1  0
  4 25  1  0
  5 10  2  0
  5  6  1  0
  6  7  2  0
  6 26  1  0
  7  8  1  0
  7 27  1  0
  8  9  2  0
  8 28  1  0
  9 21  1  0
  9 10  1  0
 10 11  1  0
 11 12  1  0
 11 29  1  1
 12 20  1  0
 12 13  1  0
 12 30  1  1
 13 21  1  0
 13 14  1  0
 13 31  1  6
 14 15  1  0
 14 32  1  0
 14 33  1  0
 15 16  1  0
 15 34  1  0
 15 35  1  0
 16 17  1  0
 16 36  1  0
 16 37  1  0
 17 18  1  0
 17 20  1  0
 17 38  1  6
 18 19  1  0
 18 39  1  0
 18 40  1  0
 19 41  1  0
 19 42  1  0
 20 21  1  0
 20 43  1  6
 21 44  1  6
M  CHG  1   2   1
M  END
>  <i_m_ct_stereo_status>  (228) 
1

>  <s_m_source_file>  (228) 
/var/tmp/pbs.5076255.sched01/tmp9n4xeji_/82rcfztp6i.sdf

>  <i_m_source_file_index>  (228) 
17

>  <i_lp_mmshare_version>  (228) 
48012

>  <i_f3d_flags>  (228) 
0

>  <s_epik_input>  (228) 
W08tXVtOQCtdMTJbQ0BASF0zYzRjKFtDSDJdW0NIMl0xKVtjSF1bY0hdW2NIXWM0W0NASF01W0NASF02W0NAQEhdM1tDQEBIXTVbQ0BIXShbQ0gyXVtDSDJdMilbQ0gyXVtDSDJdW0NIMl02

>  <s_epik_cmdline>  (228) 
J2VwaWtfcHl0aG9uJywgJy1waHQnLCAnMi4wJywgJy1waCcsICc3LjAnLCAnLXRuJywgJzgnLCAnLW1hJywgJzIwMCcsICctaW1hZScsICc8aW5maWxlLm1hZT4nLCAnLW9tYWUnLCAnPG91dGZpbGUubWFlPic=

>  <r_epik_Ionization_Penalty>  (228) 
2.03543

>  <r_epik_Ionization_Penalty_Charging>  (228) 
0

>  <r_epik_Ionization_Penalty_Neutral>  (228) 
2.03543

>  <r_epik_State_Penalty>  (228) 
2.16676

>  <r_epik_Charging_Adjusted_Penalty>  (228) 
2.16676

>  <i_epik_Tot_Q>  (228) 
1

>  <i_epik_Tot_abs_Q>  (228) 
1

>  <s_epik_Chemistry_Notes>  (228) 
This compound has a N-S or N-O group and may undergo hydrolysis at high or low pH.

>  <s_lp_Force_Field>  (228) 
OPLS3e

>  <r_lp_Energy>  (228) 
122.519

>  <b_lp_Chiralities_Consistent>  (228) 
1

>  <s_lp_Variant>  (228) 
68:0-2

>  <s_i_glide_gridfile>  (228) 
pfpi4k_grid

>  <i_i_glide_lignum>  (228) 
17

>  <i_i_glide_rotatable_bonds>  (228) 
1

>  <r_i_docking_score>  (228) 
-3.70413

>  <r_i_glide_ligand_efficiency>  (228) 
-0.176387

>  <r_i_glide_ligand_efficiency_sa>  (228) 
-0.486639

>  <r_i_glide_ligand_efficiency_ln>  (228) 
-0.915839

>  <r_i_glide_gscore>  (228) 
-3.70413

>  <r_i_glide_lipo>  (228) 
-0.695173

>  <r_i_glide_hbond>  (228) 
0

>  <r_i_glide_metal>  (228) 
-0

>  <r_i_glide_rewards>  (228) 
-1.48364

>  <r_i_glide_evdw>  (228) 
-23.1464

>  <r_i_glide_ecoul>  (228) 
-2.45333

>  <r_i_glide_erotb>  (228) 
0

>  <r_i_glide_esite>  (228) 
0

>  <r_i_glide_emodel>  (228) 
-31.5999

>  <r_i_glide_energy>  (228) 
-25.5997

>  <r_i_glide_einternal>  (228) 
1.03828

>  <r_i_glide_intrahb_reward>  (228) 
-0

>  <i_i_glide_confnum>  (228) 
1

>  <i_i_glide_posenum>  (228) 
8

>  <r_i_glide_eff_state_penalty>  (228) 
0

>  <ligand_id>  (228) 
68

>  <original_smiles>  (228) 
[O-][N+]12CCc3cccc4c3C1C1C3CCCC(CC2)C1C43

>  <smiles>  (228) 
[H]O[N+]12C([H])([H])C([H])([H])c3c([H])c([H])c([H])c4c3C1([H])C1([H])C3([H])C([H])([H])C([H])([H])C([H])([H])C([H])(C([H])([H])C2([H])[H])C1([H])C43[H]

$$$$
68:1:2
     RDKit          3D

 45 50  0  0  1  0  0  0  0  0999 V2000
    3.2433    0.1886    1.6122 O   0  0  0  0  0  0  0  0  0  0  0  0
    3.5342   -1.1324    2.1431 N   0  0  1  0  0  0  0  0  0  0  0  0
    2.9252   -1.1682    3.5087 C   0  0  0  0  0  0  0  0  0  0  0  0
    2.8092   -2.5634    4.1710 C   0  0  0  0  0  0  0  0  0  0  0  0
    2.4330   -3.7597    3.2963 C   0  0  0  0  0  0  0  0  0  0  0  0
    2.2225   -5.0790    3.7559 C   0  0  0  0  0  0  0  0  0  0  0  0
    2.2982   -6.1728    2.8679 C   0  0  0  0  0  0  0  0  0  0  0  0
    2.6943   -5.9835    1.5258 C   0  0  0  0  0  0  0  0  0  0  0  0
    2.9073   -4.6793    1.0422 C   0  0  0  0  0  0  0  0  0  0  0  0
    2.6811   -3.5803    1.9260 C   0  0  0  0  0  0  0  0  0  0  0  0
    2.7806   -2.1497    1.3362 C   0  0  2  0  0  0  0  0  0  0  0  0
    3.4088   -2.2438   -0.0144 C   0  0  2  0  0  0  0  0  0  0  0  0
    2.9849   -3.2438   -1.1100 C   0  0  1  0  0  0  0  0  0  0  0  0
    3.4955   -3.0364   -2.5439 C   0  0  0  0  0  0  0  0  0  0  0  0
    5.0326   -2.9946   -2.7059 C   0  0  0  0  0  0  0  0  0  0  0  0
    5.7650   -1.9826   -1.7944 C   0  0  0  0  0  0  0  0  0  0  0  0
    5.8360   -2.3818   -0.2968 C   0  0  1  0  0  0  0  0  0  0  0  0
    5.8690   -1.1636    0.7371 C   0  0  0  0  0  0  0  0  0  0  0  0
    5.0613   -1.2625    2.1421 C   0  0  0  0  0  0  0  0  0  0  0  0
    4.6456   -3.1199    0.1664 C   0  0  2  0  0  0  0  0  0  0  0  0
    3.6823   -4.2555   -0.2246 C   0  0  1  0  0  0  0  0  0  0  0  0
    3.4342   -0.4818    4.1895 H   0  0  0  0  0  0  0  0  0  0  0  0
    1.9066   -0.7869    3.4251 H   0  0  0  0  0  0  0  0  0  0  0  0
    3.7558   -2.8101    4.6596 H   0  0  0  0  0  0  0  0  0  0  0  0
    2.0671   -2.5108    4.9700 H   0  0  0  0  0  0  0  0  0  0  0  0
    2.0796   -5.2582    4.8128 H   0  0  0  0  0  0  0  0  0  0  0  0
    2.1695   -7.1789    3.2432 H   0  0  0  0  0  0  0  0  0  0  0  0
    2.8936   -6.8310    0.8887 H   0  0  0  0  0  0  0  0  0  0  0  0
    1.7542   -1.8023    1.2320 H   0  0  0  0  0  0  0  0  0  0  0  0
    3.5438   -1.2688   -0.4921 H   0  0  0  0  0  0  0  0  0  0  0  0
    1.9079   -3.4150   -1.1025 H   0  0  0  0  0  0  0  0  0  0  0  0
    3.1051   -3.8309   -3.1833 H   0  0  0  0  0  0  0  0  0  0  0  0
    3.0622   -2.1201   -2.9460 H   0  0  0  0  0  0  0  0  0  0  0  0
    5.4504   -3.9904   -2.5594 H   0  0  0  0  0  0  0  0  0  0  0  0
    5.2400   -2.7404   -3.7423 H   0  0  0  0  0  0  0  0  0  0  0  0
    6.7858   -1.8691   -2.1555 H   0  0  0  0  0  0  0  0  0  0  0  0
    5.2949   -1.0049   -1.9141 H   0  0  0  0  0  0  0  0  0  0  0  0
    6.7118   -3.0182   -0.1476 H   0  0  0  0  0  0  0  0  0  0  0  0
    6.9174   -0.9880    0.9775 H   0  0  0  0  0  0  0  0  0  0  0  0
    5.5509   -0.2509    0.2328 H   0  0  0  0  0  0  0  0  0  0  0  0
    5.4251   -0.4271    2.7443 H   0  0  0  0  0  0  0  0  0  0  0  0
    5.3687   -2.1393    2.7180 H   0  0  0  0  0  0  0  0  0  0  0  0
    4.9571   -3.4851    1.1440 H   0  0  0  0  0  0  0  0  0  0  0  0
    4.1552   -5.0878   -0.7402 H   0  0  0  0  0  0  0  0  0  0  0  0
    2.4874    0.0337    1.0612 H   0  0  0  0  0  0  0  0  0  0  0  0
  2  1  1  6
  1 45  1  0
  2 11  1  0
  2 19  1  0
  2  3  1  0
  3  4  1  0
  3 22  1  0
  3 23  1  0
  4  5  1  0
  4 24  1  0
  4 25  1  0
  5 10  2  0
  5  6  1  0
  6  7  2  0
  6 26  1  0
  7  8  1  0
  7 27  1  0
  8  9  2  0
  8 28  1  0
  9 21  1  0
  9 10  1  0
 10 11  1  0
 11 12  1  0
 11 29  1  6
 12 20  1  0
 12 13  1  0
 12 30  1  6
 13 21  1  0
 13 14  1  0
 13 31  1  6
 14 15  1  0
 14 32  1  0
 14 33  1  0
 15 16  1  0
 15 34  1  0
 15 35  1  0
 16 17  1  0
 16 36  1  0
 16 37  1  0
 17 18  1  0
 17 20  1  0
 17 38  1  6
 18 19  1  0
 18 39  1  0
 18 40  1  0
 19 41  1  0
 19 42  1  0
 20 21  1  0
 20 43  1  1
 21 44  1  6
M  CHG  1   2   1
M  END
>  <i_m_ct_stereo_status>  (229) 
1

>  <s_m_source_file>  (229) 
/var/tmp/pbs.5076255.sched01/tmp9n4xeji_/82rcfztp6i.sdf

>  <i_m_source_file_index>  (229) 
17

>  <i_lp_mmshare_version>  (229) 
48012

>  <i_f3d_flags>  (229) 
0

>  <s_epik_input>  (229) 
W08tXVtOQCtdMTJbQ0BASF0zYzRjKFtDSDJdW0NIMl0xKVtjSF1bY0hdW2NIXWM0W0NASF01W0NASF02W0NAQEhdM1tDQEBIXTVbQ0BIXShbQ0gyXVtDSDJdMilbQ0gyXVtDSDJdW0NIMl02

>  <s_epik_cmdline>  (229) 
J2VwaWtfcHl0aG9uJywgJy1waHQnLCAnMi4wJywgJy1waCcsICc3LjAnLCAnLXRuJywgJzgnLCAnLW1hJywgJzIwMCcsICctaW1hZScsICc8aW5maWxlLm1hZT4nLCAnLW9tYWUnLCAnPG91dGZpbGUubWFlPic=

>  <r_epik_Ionization_Penalty>  (229) 
2.03543

>  <r_epik_Ionization_Penalty_Charging>  (229) 
0

>  <r_epik_Ionization_Penalty_Neutral>  (229) 
2.03543

>  <r_epik_State_Penalty>  (229) 
2.16676

>  <r_epik_Charging_Adjusted_Penalty>  (229) 
2.16676

>  <i_epik_Tot_Q>  (229) 
1

>  <i_epik_Tot_abs_Q>  (229) 
1

>  <s_epik_Chemistry_Notes>  (229) 
This compound has a N-S or N-O group and may undergo hydrolysis at high or low pH.

>  <s_lp_Force_Field>  (229) 
OPLS3e

>  <r_lp_Energy>  (229) 
122.519

>  <b_lp_Chiralities_Consistent>  (229) 
1

>  <s_lp_Variant>  (229) 
68:0-2

>  <s_i_glide_gridfile>  (229) 
pfpi4k_grid

>  <i_i_glide_lignum>  (229) 
17

>  <i_i_glide_rotatable_bonds>  (229) 
1

>  <r_i_docking_score>  (229) 
-3.61338

>  <r_i_glide_ligand_efficiency>  (229) 
-0.172066

>  <r_i_glide_ligand_efficiency_sa>  (229) 
-0.474717

>  <r_i_glide_ligand_efficiency_ln>  (229) 
-0.893402

>  <r_i_glide_gscore>  (229) 
-3.61338

>  <r_i_glide_lipo>  (229) 
-0.473491

>  <r_i_glide_hbond>  (229) 
0

>  <r_i_glide_metal>  (229) 
-0

>  <r_i_glide_rewards>  (229) 
-1.48364

>  <r_i_glide_evdw>  (229) 
-23.5142

>  <r_i_glide_ecoul>  (229) 
-3.16832

>  <r_i_glide_erotb>  (229) 
0

>  <r_i_glide_esite>  (229) 
-0.00529892

>  <r_i_glide_emodel>  (229) 
-32.4863

>  <r_i_glide_energy>  (229) 
-26.6825

>  <r_i_glide_einternal>  (229) 
1.06846

>  <r_i_glide_intrahb_reward>  (229) 
-0

>  <i_i_glide_confnum>  (229) 
2

>  <i_i_glide_posenum>  (229) 
24

>  <r_i_glide_eff_state_penalty>  (229) 
0

>  <ligand_id>  (229) 
68

>  <original_smiles>  (229) 
[O-][N+]12CCc3cccc4c3C1C1C3CCCC(CC2)C1C43

>  <smiles>  (229) 
[H]O[N+]12C([H])([H])C([H])([H])c3c([H])c([H])c([H])c4c3C1([H])C1([H])C3([H])C([H])([H])C([H])([H])C([H])([H])C([H])(C([H])([H])C2([H])[H])C1([H])C43[H]

$$$$
70:0:0
     RDKit          3D

 11 12  0  0  1  0  0  0  0  0999 V2000
    3.0856   -2.5976   -3.5846 C   0  0  0  0  0  0  0  0  0  0  0  0
    3.1250   -1.6482   -2.5264 C   0  0  0  0  0  0  0  0  0  0  0  0
    4.2700   -1.7458   -1.8701 N   0  0  0  0  0  0  0  0  0  0  0  0
    4.6687   -1.0559   -0.8110 C   0  0  0  0  0  0  0  0  0  0  0  0
    5.8953   -1.4515   -0.5086 N   0  0  0  0  0  0  0  0  0  0  0  0
    6.2550   -2.4570   -1.4503 N   0  0  0  0  0  0  0  0  0  0  0  0
    5.2295   -2.6304   -2.2528 C   0  0  0  0  0  0  0  0  0  0  0  0
    4.6128   -3.5417   -3.6510 S   0  0  0  0  0  0  0  0  0  0  0  0
    2.2746   -2.7752   -4.2933 H   0  0  0  0  0  0  0  0  0  0  0  0
    2.3718   -0.9140   -2.2376 H   0  0  0  0  0  0  0  0  0  0  0  0
    4.1333   -0.2879   -0.2779 H   0  0  0  0  0  0  0  0  0  0  0  0
  1  8  1  0
  1  2  2  0
  1  9  1  0
  2  3  1  0
  2 10  1  0
  3  7  1  0
  3  4  1  0
  4  5  2  0
  4 11  1  0
  5  6  1  0
  6  7  2  0
  7  8  1  0
M  END
>  <i_m_ct_stereo_status>  (230) 
1

>  <s_m_source_file>  (230) 
/var/tmp/pbs.5076255.sched01/tmp9n4xeji_/82rcfztp6i.sdf

>  <i_m_source_file_index>  (230) 
19

>  <i_lp_mmshare_version>  (230) 
48012

>  <i_f3d_flags>  (230) 
0

>  <s_epik_input>  (230) 
W2NIXTFbY0hdc2MobjEyKW5uW2NIXTI=

>  <s_epik_cmdline>  (230) 
J2VwaWtfcHl0aG9uJywgJy1waHQnLCAnMi4wJywgJy1waCcsICc3LjAnLCAnLXRuJywgJzgnLCAnLW1hJywgJzIwMCcsICctaW1hZScsICc8aW5maWxlLm1hZT4nLCAnLW9tYWUnLCAnPG91dGZpbGUubWFlPic=

>  <r_lp_tautomer_probability>  (230) 
1

>  <r_epik_Ionization_Penalty>  (230) 
0.000101483

>  <r_epik_Ionization_Penalty_Charging>  (230) 
0

>  <r_epik_Ionization_Penalty_Neutral>  (230) 
0.000101483

>  <r_epik_State_Penalty>  (230) 
-0

>  <r_epik_Charging_Adjusted_Penalty>  (230) 
0

>  <i_epik_Tot_Q>  (230) 
0

>  <i_epik_Tot_abs_Q>  (230) 
0

>  <s_lp_Force_Field>  (230) 
OPLS3e

>  <r_lp_Energy>  (230) 
1.20871

>  <b_lp_Chiralities_Consistent>  (230) 
1

>  <s_lp_Variant>  (230) 
70:0-1

>  <s_i_glide_gridfile>  (230) 
pfpi4k_grid

>  <i_i_glide_lignum>  (230) 
19

>  <i_i_glide_rotatable_bonds>  (230) 
0

>  <r_i_docking_score>  (230) 
-4.26271

>  <r_i_glide_ligand_efficiency>  (230) 
-0.532838

>  <r_i_glide_ligand_efficiency_sa>  (230) 
-1.06568

>  <r_i_glide_ligand_efficiency_ln>  (230) 
-1.38425

>  <r_i_glide_gscore>  (230) 
-4.26271

>  <r_i_glide_lipo>  (230) 
-0.401962

>  <r_i_glide_hbond>  (230) 
0

>  <r_i_glide_metal>  (230) 
-0

>  <r_i_glide_rewards>  (230) 
-2.38295

>  <r_i_glide_evdw>  (230) 
-17.0615

>  <r_i_glide_ecoul>  (230) 
-3.10163

>  <r_i_glide_erotb>  (230) 
0

>  <r_i_glide_esite>  (230) 
-0.159481

>  <r_i_glide_emodel>  (230) 
-26.7459

>  <r_i_glide_energy>  (230) 
-20.1631

>  <r_i_glide_einternal>  (230) 
0

>  <r_i_glide_intrahb_reward>  (230) 
-0

>  <i_i_glide_confnum>  (230) 
1

>  <i_i_glide_posenum>  (230) 
3

>  <r_i_glide_eff_state_penalty>  (230) 
0

>  <ligand_id>  (230) 
70

>  <original_smiles>  (230) 
c1cn2cnnc2s1

>  <smiles>  (230) 
[H]c1sc2nnc([H])n2c1[H]

$$$$
70:0:1
     RDKit          3D

 11 12  0  0  1  0  0  0  0  0999 V2000
    1.8965  -10.0512    2.6872 C   0  0  0  0  0  0  0  0  0  0  0  0
    0.5523  -10.2118    3.1381 C   0  0  0  0  0  0  0  0  0  0  0  0
   -0.1178   -9.0720    2.9610 N   0  0  0  0  0  0  0  0  0  0  0  0
   -1.3837   -8.7901    3.2437 C   0  0  0  0  0  0  0  0  0  0  0  0
   -1.6160   -7.5241    2.9066 N   0  0  0  0  0  0  0  0  0  0  0  0
   -0.4033   -7.0159    2.3713 N   0  0  0  0  0  0  0  0  0  0  0  0
    0.4901   -7.9794    2.4245 C   0  0  0  0  0  0  0  0  0  0  0  0
    2.1849   -8.3908    2.0652 S   0  0  0  0  0  0  0  0  0  0  0  0
    2.6879  -10.7958    2.6794 H   0  0  0  0  0  0  0  0  0  0  0  0
    0.0413  -11.0687    3.5706 H   0  0  0  0  0  0  0  0  0  0  0  0
   -2.1206   -9.4517    3.6736 H   0  0  0  0  0  0  0  0  0  0  0  0
  1  8  1  0
  1  2  2  0
  1  9  1  0
  2  3  1  0
  2 10  1  0
  3  7  1  0
  3  4  1  0
  4  5  2  0
  4 11  1  0
  5  6  1  0
  6  7  2  0
  7  8  1  0
M  END
>  <i_m_ct_stereo_status>  (231) 
1

>  <s_m_source_file>  (231) 
/var/tmp/pbs.5076255.sched01/tmp9n4xeji_/82rcfztp6i.sdf

>  <i_m_source_file_index>  (231) 
19

>  <i_lp_mmshare_version>  (231) 
48012

>  <i_f3d_flags>  (231) 
0

>  <s_epik_input>  (231) 
W2NIXTFbY0hdc2MobjEyKW5uW2NIXTI=

>  <s_epik_cmdline>  (231) 
J2VwaWtfcHl0aG9uJywgJy1waHQnLCAnMi4wJywgJy1waCcsICc3LjAnLCAnLXRuJywgJzgnLCAnLW1hJywgJzIwMCcsICctaW1hZScsICc8aW5maWxlLm1hZT4nLCAnLW9tYWUnLCAnPG91dGZpbGUubWFlPic=

>  <r_lp_tautomer_probability>  (231) 
1

>  <r_epik_Ionization_Penalty>  (231) 
0.000101483

>  <r_epik_Ionization_Penalty_Charging>  (231) 
0

>  <r_epik_Ionization_Penalty_Neutral>  (231) 
0.000101483

>  <r_epik_State_Penalty>  (231) 
-0

>  <r_epik_Charging_Adjusted_Penalty>  (231) 
0

>  <i_epik_Tot_Q>  (231) 
0

>  <i_epik_Tot_abs_Q>  (231) 
0

>  <s_lp_Force_Field>  (231) 
OPLS3e

>  <r_lp_Energy>  (231) 
1.20871

>  <b_lp_Chiralities_Consistent>  (231) 
1

>  <s_lp_Variant>  (231) 
70:0-1

>  <s_i_glide_gridfile>  (231) 
pfpi4k_grid

>  <i_i_glide_lignum>  (231) 
19

>  <i_i_glide_rotatable_bonds>  (231) 
0

>  <r_i_docking_score>  (231) 
-4.04

>  <r_i_glide_ligand_efficiency>  (231) 
-0.505

>  <r_i_glide_ligand_efficiency_sa>  (231) 
-1.01

>  <r_i_glide_ligand_efficiency_ln>  (231) 
-1.31193

>  <r_i_glide_gscore>  (231) 
-4.04

>  <r_i_glide_lipo>  (231) 
-0.110941

>  <r_i_glide_hbond>  (231) 
0

>  <r_i_glide_metal>  (231) 
-0

>  <r_i_glide_rewards>  (231) 
-2.25

>  <r_i_glide_evdw>  (231) 
-15.1863

>  <r_i_glide_ecoul>  (231) 
-4.03263

>  <r_i_glide_erotb>  (231) 
0

>  <r_i_glide_esite>  (231) 
-0.314849

>  <r_i_glide_emodel>  (231) 
-25.4756

>  <r_i_glide_energy>  (231) 
-19.219

>  <r_i_glide_einternal>  (231) 
0

>  <r_i_glide_intrahb_reward>  (231) 
-0

>  <i_i_glide_confnum>  (231) 
1

>  <i_i_glide_posenum>  (231) 
1

>  <r_i_glide_eff_state_penalty>  (231) 
0

>  <ligand_id>  (231) 
70

>  <original_smiles>  (231) 
c1cn2cnnc2s1

>  <smiles>  (231) 
[H]c1sc2nnc([H])n2c1[H]

$$$$
70:0:2
     RDKit          3D

 11 12  0  0  1  0  0  0  0  0999 V2000
    0.2199  -10.0389    3.1879 C   0  0  0  0  0  0  0  0  0  0  0  0
    1.4286   -9.3918    2.7889 C   0  0  0  0  0  0  0  0  0  0  0  0
    1.1375   -8.2172    2.2173 N   0  0  0  0  0  0  0  0  0  0  0  0
    1.9336   -7.2867    1.7024 C   0  0  0  0  0  0  0  0  0  0  0  0
    1.1665   -6.2942    1.2448 N   0  0  0  0  0  0  0  0  0  0  0  0
   -0.1769   -6.6596    1.4928 N   0  0  0  0  0  0  0  0  0  0  0  0
   -0.1576   -7.8283    2.0869 C   0  0  0  0  0  0  0  0  0  0  0  0
   -1.2229   -9.0516    2.7832 S   0  0  0  0  0  0  0  0  0  0  0  0
    0.1136  -11.0044    3.6808 H   0  0  0  0  0  0  0  0  0  0  0  0
    2.4599   -9.7106    2.8828 H   0  0  0  0  0  0  0  0  0  0  0  0
    3.0118   -7.3041    1.6505 H   0  0  0  0  0  0  0  0  0  0  0  0
  1  8  1  0
  1  2  2  0
  1  9  1  0
  2  3  1  0
  2 10  1  0
  3  7  1  0
  3  4  1  0
  4  5  2  0
  4 11  1  0
  5  6  1  0
  6  7  2  0
  7  8  1  0
M  END
>  <i_m_ct_stereo_status>  (232) 
1

>  <s_m_source_file>  (232) 
/var/tmp/pbs.5076255.sched01/tmp9n4xeji_/82rcfztp6i.sdf

>  <i_m_source_file_index>  (232) 
19

>  <i_lp_mmshare_version>  (232) 
48012

>  <i_f3d_flags>  (232) 
0

>  <s_epik_input>  (232) 
W2NIXTFbY0hdc2MobjEyKW5uW2NIXTI=

>  <s_epik_cmdline>  (232) 
J2VwaWtfcHl0aG9uJywgJy1waHQnLCAnMi4wJywgJy1waCcsICc3LjAnLCAnLXRuJywgJzgnLCAnLW1hJywgJzIwMCcsICctaW1hZScsICc8aW5maWxlLm1hZT4nLCAnLW9tYWUnLCAnPG91dGZpbGUubWFlPic=

>  <r_lp_tautomer_probability>  (232) 
1

>  <r_epik_Ionization_Penalty>  (232) 
0.000101483

>  <r_epik_Ionization_Penalty_Charging>  (232) 
0

>  <r_epik_Ionization_Penalty_Neutral>  (232) 
0.000101483

>  <r_epik_State_Penalty>  (232) 
-0

>  <r_epik_Charging_Adjusted_Penalty>  (232) 
0

>  <i_epik_Tot_Q>  (232) 
0

>  <i_epik_Tot_abs_Q>  (232) 
0

>  <s_lp_Force_Field>  (232) 
OPLS3e

>  <r_lp_Energy>  (232) 
1.20871

>  <b_lp_Chiralities_Consistent>  (232) 
1

>  <s_lp_Variant>  (232) 
70:0-1

>  <s_i_glide_gridfile>  (232) 
pfpi4k_grid

>  <i_i_glide_lignum>  (232) 
19

>  <i_i_glide_rotatable_bonds>  (232) 
0

>  <r_i_docking_score>  (232) 
-3.9919

>  <r_i_glide_ligand_efficiency>  (232) 
-0.498988

>  <r_i_glide_ligand_efficiency_sa>  (232) 
-0.997976

>  <r_i_glide_ligand_efficiency_ln>  (232) 
-1.29631

>  <r_i_glide_gscore>  (232) 
-3.9919

>  <r_i_glide_lipo>  (232) 
-0.0365615

>  <r_i_glide_hbond>  (232) 
0

>  <r_i_glide_metal>  (232) 
-0

>  <r_i_glide_rewards>  (232) 
-2.25

>  <r_i_glide_evdw>  (232) 
-15.3109

>  <r_i_glide_ecoul>  (232) 
-4.22499

>  <r_i_glide_erotb>  (232) 
0

>  <r_i_glide_esite>  (232) 
-0.306048

>  <r_i_glide_emodel>  (232) 
-25.7165

>  <r_i_glide_energy>  (232) 
-19.5359

>  <r_i_glide_einternal>  (232) 
0

>  <r_i_glide_intrahb_reward>  (232) 
-0

>  <i_i_glide_confnum>  (232) 
1

>  <i_i_glide_posenum>  (232) 
18

>  <r_i_glide_eff_state_penalty>  (232) 
0

>  <ligand_id>  (232) 
70

>  <original_smiles>  (232) 
c1cn2cnnc2s1

>  <smiles>  (232) 
[H]c1sc2nnc([H])n2c1[H]

$$$$
71:0:0
     RDKit          3D

 39 40  0  0  1  0  0  0  0  0999 V2000
    0.4905   -8.6135    2.5167 C   0  0  0  0  0  0  0  0  0  0  0  0
    1.1060   -7.5463    1.7051 C   0  0  0  0  0  0  0  0  0  0  0  0
    0.3968   -6.6579    1.0084 N   0  0  0  0  0  0  0  0  0  0  0  0
    1.3827   -5.8596    0.4171 O   0  0  0  0  0  0  0  0  0  0  0  0
    2.5701   -6.3342    0.8735 C   0  0  0  0  0  0  0  0  0  0  0  0
    3.8499   -5.6735    0.4364 C   0  0  2  0  0  0  0  0  0  0  0  0
    5.1220   -6.3654    0.9839 C   0  0  0  0  0  0  0  0  0  0  0  0
    5.2712   -6.2243    2.5119 C   0  0  0  0  0  0  0  0  0  0  0  0
    5.1861   -4.7452    2.9108 C   0  0  0  0  0  0  0  0  0  0  0  0
    3.9374   -4.0524    2.3229 C   0  0  0  0  0  0  0  0  0  0  0  0
    3.8415   -4.2528    0.8537 N   0  0  0  0  0  0  0  0  0  0  0  0
    3.7137   -3.1961    0.0091 C   0  0  0  0  0  0  0  0  0  0  0  0
    3.8038   -2.0337    0.3975 O   0  0  0  0  0  0  0  0  0  0  0  0
    3.3643   -3.4483   -1.4771 C   0  0  0  0  0  0  0  0  0  0  0  0
    3.3140   -2.2040   -2.4024 C   0  0  0  0  0  0  0  0  0  0  0  0
    2.7767   -2.5941   -3.7978 C   0  0  0  0  0  0  0  0  0  0  0  0
    4.6900   -1.5303   -2.5619 C   0  0  0  0  0  0  0  0  0  0  0  0
    2.4429   -7.3969    1.6609 N   0  0  0  0  0  0  0  0  0  0  0  0
   -0.5813   -8.4711    2.6345 H   0  0  0  0  0  0  0  0  0  0  0  0
    0.9611   -8.6290    3.4986 H   0  0  0  0  0  0  0  0  0  0  0  0
    0.6668   -9.5821    2.0516 H   0  0  0  0  0  0  0  0  0  0  0  0
    3.9082   -5.7928   -0.6466 H   0  0  0  0  0  0  0  0  0  0  0  0
    5.1220   -7.4123    0.6945 H   0  0  0  0  0  0  0  0  0  0  0  0
    5.9923   -5.9237    0.5029 H   0  0  0  0  0  0  0  0  0  0  0  0
    4.4769   -6.7672    3.0319 H   0  0  0  0  0  0  0  0  0  0  0  0
    6.2101   -6.6707    2.8499 H   0  0  0  0  0  0  0  0  0  0  0  0
    5.1518   -4.6712    3.9999 H   0  0  0  0  0  0  0  0  0  0  0  0
    6.0890   -4.2224    2.5826 H   0  0  0  0  0  0  0  0  0  0  0  0
    3.0279   -4.4462    2.7771 H   0  0  0  0  0  0  0  0  0  0  0  0
    3.9593   -2.9998    2.6076 H   0  0  0  0  0  0  0  0  0  0  0  0
    4.0815   -4.1355   -1.9123 H   0  0  0  0  0  0  0  0  0  0  0  0
    2.3862   -3.9328   -1.5006 H   0  0  0  0  0  0  0  0  0  0  0  0
    2.6201   -1.4725   -1.9834 H   0  0  0  0  0  0  0  0  0  0  0  0
    3.4048   -3.3421   -4.2873 H   0  0  0  0  0  0  0  0  0  0  0  0
    2.7328   -1.7181   -4.4498 H   0  0  0  0  0  0  0  0  0  0  0  0
    1.7661   -3.0054   -3.7369 H   0  0  0  0  0  0  0  0  0  0  0  0
    5.4131   -2.2231   -2.9900 H   0  0  0  0  0  0  0  0  0  0  0  0
    5.0900   -1.1786   -1.6116 H   0  0  0  0  0  0  0  0  0  0  0  0
    4.6221   -0.6641   -3.2199 H   0  0  0  0  0  0  0  0  0  0  0  0
  1  2  1  0
  1 19  1  0
  1 20  1  0
  1 21  1  0
  2 18  1  0
  2  3  2  0
  3  4  1  0
  4  5  1  0
  5  6  1  0
  5 18  2  0
  6 11  1  0
  6  7  1  0
  6 22  1  6
  7  8  1  0
  7 23  1  0
  7 24  1  0
  8  9  1  0
  8 25  1  0
  8 26  1  0
  9 10  1  0
  9 27  1  0
  9 28  1  0
 10 11  1  0
 10 29  1  0
 10 30  1  0
 11 12  1  0
 12 13  2  0
 12 14  1  0
 14 15  1  0
 14 31  1  0
 14 32  1  0
 15 16  1  0
 15 17  1  0
 15 33  1  0
 16 34  1  0
 16 35  1  0
 16 36  1  0
 17 37  1  0
 17 38  1  0
 17 39  1  0
M  END
>  <i_m_ct_stereo_status>  (233) 
1

>  <s_m_source_file>  (233) 
/var/tmp/pbs.5076255.sched01/tmp9n4xeji_/82rcfztp6i.sdf

>  <i_m_source_file_index>  (233) 
20

>  <i_lp_mmshare_version>  (233) 
48012

>  <i_f3d_flags>  (233) 
0

>  <s_epik_input>  (233) 
W0NIM11jMW5vYyhuMSlbQ0BASF0yW0NIMl1bQ0gyXVtDSDJdW0NIMl1OMkMoPU8pW0NIMl1bQ0hdKFtDSDNdKVtDSDNd

>  <s_epik_cmdline>  (233) 
J2VwaWtfcHl0aG9uJywgJy1waHQnLCAnMi4wJywgJy1waCcsICc3LjAnLCAnLXRuJywgJzgnLCAnLW1hJywgJzIwMCcsICctaW1hZScsICc8aW5maWxlLm1hZT4nLCAnLW9tYWUnLCAnPG91dGZpbGUubWFlPic=

>  <r_lp_tautomer_probability>  (233) 
1

>  <r_epik_Ionization_Penalty>  (233) 
2.47487e-09

>  <r_epik_Ionization_Penalty_Charging>  (233) 
0

>  <r_epik_Ionization_Penalty_Neutral>  (233) 
2.47487e-09

>  <r_epik_State_Penalty>  (233) 
-0

>  <r_epik_Charging_Adjusted_Penalty>  (233) 
0

>  <i_epik_Tot_Q>  (233) 
0

>  <i_epik_Tot_abs_Q>  (233) 
0

>  <s_lp_Force_Field>  (233) 
OPLS3e

>  <r_lp_Energy>  (233) 
13.2779

>  <b_lp_Chiralities_Consistent>  (233) 
1

>  <s_lp_Variant>  (233) 
71:0-1

>  <s_i_glide_gridfile>  (233) 
pfpi4k_grid

>  <i_i_glide_lignum>  (233) 
20

>  <i_i_glide_rotatable_bonds>  (233) 
4

>  <r_i_docking_score>  (233) 
-3.36

>  <r_i_glide_ligand_efficiency>  (233) 
-0.186667

>  <r_i_glide_ligand_efficiency_sa>  (233) 
-0.489206

>  <r_i_glide_ligand_efficiency_ln>  (233) 
-0.863672

>  <r_i_glide_gscore>  (233) 
-3.36

>  <r_i_glide_lipo>  (233) 
-0.416351

>  <r_i_glide_hbond>  (233) 
0

>  <r_i_glide_metal>  (233) 
-0

>  <r_i_glide_rewards>  (233) 
-1.71122

>  <r_i_glide_evdw>  (233) 
-21.458

>  <r_i_glide_ecoul>  (233) 
-4.97009

>  <r_i_glide_erotb>  (233) 
0.832422

>  <r_i_glide_esite>  (233) 
-0.246443

>  <r_i_glide_emodel>  (233) 
-30.3077

>  <r_i_glide_energy>  (233) 
-26.4281

>  <r_i_glide_einternal>  (233) 
3.07522

>  <r_i_glide_intrahb_reward>  (233) 
-0

>  <i_i_glide_confnum>  (233) 
2

>  <i_i_glide_posenum>  (233) 
39

>  <r_i_glide_eff_state_penalty>  (233) 
0

>  <ligand_id>  (233) 
71

>  <original_smiles>  (233) 
Cc1noc(C2CCCCN2C(=O)CC(C)C)n1

>  <smiles>  (233) 
[H]C([H])([H])c1noc(C2([H])N(C(=O)C([H])([H])C([H])(C([H])([H])[H])C([H])([H])[H])C([H])([H])C([H])([H])C([H])([H])C2([H])[H])n1

$$$$
71:0:1
     RDKit          3D

 39 40  0  0  1  0  0  0  0  0999 V2000
    1.9218   -7.6404    1.8734 C   0  0  0  0  0  0  0  0  0  0  0  0
    2.5299   -6.5168    1.1332 C   0  0  0  0  0  0  0  0  0  0  0  0
    1.8087   -5.5053    0.6721 N   0  0  0  0  0  0  0  0  0  0  0  0
    2.7417   -4.6903    0.0450 O   0  0  0  0  0  0  0  0  0  0  0  0
    3.9344   -5.2959    0.2280 C   0  0  0  0  0  0  0  0  0  0  0  0
    5.1940   -4.6848   -0.3076 C   0  0  2  0  0  0  0  0  0  0  0  0
    6.4473   -5.0168    0.5189 C   0  0  0  0  0  0  0  0  0  0  0  0
    6.3808   -4.4151    1.9222 C   0  0  0  0  0  0  0  0  0  0  0  0
    6.1575   -2.8962    1.8314 C   0  0  0  0  0  0  0  0  0  0  0  0
    4.9404   -2.5519    0.9623 C   0  0  0  0  0  0  0  0  0  0  0  0
    5.0317   -3.2080   -0.3730 N   0  0  0  0  0  0  0  0  0  0  0  0
    4.9234   -2.4895   -1.5041 C   0  0  0  0  0  0  0  0  0  0  0  0
    5.0294   -1.2557   -1.4903 O   0  0  0  0  0  0  0  0  0  0  0  0
    4.6944   -3.1816   -2.8794 C   0  0  0  0  0  0  0  0  0  0  0  0
    3.5982   -2.5953   -3.7954 C   0  0  0  0  0  0  0  0  0  0  0  0
    3.8113   -1.1457   -4.2660 C   0  0  0  0  0  0  0  0  0  0  0  0
    2.2025   -2.7992   -3.1932 C   0  0  0  0  0  0  0  0  0  0  0  0
    3.8484   -6.4777    0.8584 N   0  0  0  0  0  0  0  0  0  0  0  0
    0.9013   -7.3957    2.1605 H   0  0  0  0  0  0  0  0  0  0  0  0
    2.5151   -7.8522    2.7630 H   0  0  0  0  0  0  0  0  0  0  0  0
    1.8902   -8.5149    1.2295 H   0  0  0  0  0  0  0  0  0  0  0  0
    5.4071   -5.1457   -1.2748 H   0  0  0  0  0  0  0  0  0  0  0  0
    6.5745   -6.0953    0.5751 H   0  0  0  0  0  0  0  0  0  0  0  0
    7.3315   -4.6311    0.0063 H   0  0  0  0  0  0  0  0  0  0  0  0
    5.5615   -4.8695    2.4810 H   0  0  0  0  0  0  0  0  0  0  0  0
    7.2931   -4.6548    2.4617 H   0  0  0  0  0  0  0  0  0  0  0  0
    6.0134   -2.4816    2.8343 H   0  0  0  0  0  0  0  0  0  0  0  0
    7.0388   -2.4112    1.4054 H   0  0  0  0  0  0  0  0  0  0  0  0
    4.0280   -2.8676    1.4649 H   0  0  0  0  0  0  0  0  0  0  0  0
    4.8518   -1.4664    0.9100 H   0  0  0  0  0  0  0  0  0  0  0  0
    5.6562   -3.2116   -3.3947 H   0  0  0  0  0  0  0  0  0  0  0  0
    4.3806   -4.2196   -2.7720 H   0  0  0  0  0  0  0  0  0  0  0  0
    3.6214   -3.2143   -4.6890 H   0  0  0  0  0  0  0  0  0  0  0  0
    3.7550   -0.4291   -3.4467 H   0  0  0  0  0  0  0  0  0  0  0  0
    3.0454   -0.8518   -4.9863 H   0  0  0  0  0  0  0  0  0  0  0  0
    4.7886   -1.0425   -4.7340 H   0  0  0  0  0  0  0  0  0  0  0  0
    2.0902   -2.2457   -2.2627 H   0  0  0  0  0  0  0  0  0  0  0  0
    2.0145   -3.8495   -2.9554 H   0  0  0  0  0  0  0  0  0  0  0  0
    1.4203   -2.4874   -3.8855 H   0  0  0  0  0  0  0  0  0  0  0  0
  1  2  1  0
  1 19  1  0
  1 20  1  0
  1 21  1  0
  2 18  1  0
  2  3  2  0
  3  4  1  0
  4  5  1  0
  5  6  1  0
  5 18  2  0
  6 11  1  0
  6  7  1  0
  6 22  1  6
  7  8  1  0
  7 23  1  0
  7 24  1  0
  8  9  1  0
  8 25  1  0
  8 26  1  0
  9 10  1  0
  9 27  1  0
  9 28  1  0
 10 11  1  0
 10 29  1  0
 10 30  1  0
 11 12  1  0
 12 13  2  0
 12 14  1  0
 14 15  1  0
 14 31  1  0
 14 32  1  0
 15 16  1  0
 15 17  1  0
 15 33  1  0
 16 34  1  0
 16 35  1  0
 16 36  1  0
 17 37  1  0
 17 38  1  0
 17 39  1  0
M  END
>  <i_m_ct_stereo_status>  (234) 
1

>  <s_m_source_file>  (234) 
/var/tmp/pbs.5076255.sched01/tmp9n4xeji_/82rcfztp6i.sdf

>  <i_m_source_file_index>  (234) 
20

>  <i_lp_mmshare_version>  (234) 
48012

>  <i_f3d_flags>  (234) 
0

>  <s_epik_input>  (234) 
W0NIM11jMW5vYyhuMSlbQ0BASF0yW0NIMl1bQ0gyXVtDSDJdW0NIMl1OMkMoPU8pW0NIMl1bQ0hdKFtDSDNdKVtDSDNd

>  <s_epik_cmdline>  (234) 
J2VwaWtfcHl0aG9uJywgJy1waHQnLCAnMi4wJywgJy1waCcsICc3LjAnLCAnLXRuJywgJzgnLCAnLW1hJywgJzIwMCcsICctaW1hZScsICc8aW5maWxlLm1hZT4nLCAnLW9tYWUnLCAnPG91dGZpbGUubWFlPic=

>  <r_lp_tautomer_probability>  (234) 
1

>  <r_epik_Ionization_Penalty>  (234) 
2.47487e-09

>  <r_epik_Ionization_Penalty_Charging>  (234) 
0

>  <r_epik_Ionization_Penalty_Neutral>  (234) 
2.47487e-09

>  <r_epik_State_Penalty>  (234) 
-0

>  <r_epik_Charging_Adjusted_Penalty>  (234) 
0

>  <i_epik_Tot_Q>  (234) 
0

>  <i_epik_Tot_abs_Q>  (234) 
0

>  <s_lp_Force_Field>  (234) 
OPLS3e

>  <r_lp_Energy>  (234) 
13.2779

>  <b_lp_Chiralities_Consistent>  (234) 
1

>  <s_lp_Variant>  (234) 
71:0-1

>  <s_i_glide_gridfile>  (234) 
pfpi4k_grid

>  <i_i_glide_lignum>  (234) 
20

>  <i_i_glide_rotatable_bonds>  (234) 
4

>  <r_i_docking_score>  (234) 
-3.31788

>  <r_i_glide_ligand_efficiency>  (234) 
-0.184327

>  <r_i_glide_ligand_efficiency_sa>  (234) 
-0.483073

>  <r_i_glide_ligand_efficiency_ln>  (234) 
-0.852845

>  <r_i_glide_gscore>  (234) 
-3.31788

>  <r_i_glide_lipo>  (234) 
-0.700438

>  <r_i_glide_hbond>  (234) 
0

>  <r_i_glide_metal>  (234) 
-0

>  <r_i_glide_rewards>  (234) 
-1.74385

>  <r_i_glide_evdw>  (234) 
-23.1923

>  <r_i_glide_ecoul>  (234) 
-2.57079

>  <r_i_glide_erotb>  (234) 
0.832422

>  <r_i_glide_esite>  (234) 
-0.160785

>  <r_i_glide_emodel>  (234) 
-31.0194

>  <r_i_glide_energy>  (234) 
-25.7631

>  <r_i_glide_einternal>  (234) 
0.450544

>  <r_i_glide_intrahb_reward>  (234) 
-0

>  <i_i_glide_confnum>  (234) 
2

>  <i_i_glide_posenum>  (234) 
20

>  <r_i_glide_eff_state_penalty>  (234) 
0

>  <ligand_id>  (234) 
71

>  <original_smiles>  (234) 
Cc1noc(C2CCCCN2C(=O)CC(C)C)n1

>  <smiles>  (234) 
[H]C([H])([H])c1noc(C2([H])N(C(=O)C([H])([H])C([H])(C([H])([H])[H])C([H])([H])[H])C([H])([H])C([H])([H])C([H])([H])C2([H])[H])n1

$$$$
71:0:2
     RDKit          3D

 39 40  0  0  1  0  0  0  0  0999 V2000
   -0.3480   -8.5449    2.3729 C   0  0  0  0  0  0  0  0  0  0  0  0
    0.5845   -7.5217    1.8443 C   0  0  0  0  0  0  0  0  0  0  0  0
    0.2450   -6.6590    0.8935 N   0  0  0  0  0  0  0  0  0  0  0  0
    1.4070   -5.8837    0.7394 O   0  0  0  0  0  0  0  0  0  0  0  0
    2.2971   -6.3594    1.6512 C   0  0  0  0  0  0  0  0  0  0  0  0
    3.6509   -5.7201    1.7916 C   0  0  2  0  0  0  0  0  0  0  0  0
    4.3752   -6.0961    3.1081 C   0  0  0  0  0  0  0  0  0  0  0  0
    3.6681   -5.5252    4.3494 C   0  0  0  0  0  0  0  0  0  0  0  0
    3.4911   -4.0083    4.2109 C   0  0  0  0  0  0  0  0  0  0  0  0
    2.8036   -3.6407    2.8821 C   0  0  0  0  0  0  0  0  0  0  0  0
    3.5095   -4.2482    1.7275 N   0  0  0  0  0  0  0  0  0  0  0  0
    3.9353   -3.4805    0.6914 C   0  0  0  0  0  0  0  0  0  0  0  0
    3.9089   -2.2543    0.7366 O   0  0  0  0  0  0  0  0  0  0  0  0
    4.4253   -4.1698   -0.6000 C   0  0  0  0  0  0  0  0  0  0  0  0
    4.3007   -3.3684   -1.9209 C   0  0  0  0  0  0  0  0  0  0  0  0
    5.2551   -2.1631   -2.0205 C   0  0  0  0  0  0  0  0  0  0  0  0
    2.8465   -2.9735   -2.2281 C   0  0  0  0  0  0  0  0  0  0  0  0
    1.8413   -7.4113    2.3238 N   0  0  0  0  0  0  0  0  0  0  0  0
   -1.3578   -8.3827    2.0065 H   0  0  0  0  0  0  0  0  0  0  0  0
   -0.3505   -8.5198    3.4596 H   0  0  0  0  0  0  0  0  0  0  0  0
   -0.0188   -9.5387    2.0772 H   0  0  0  0  0  0  0  0  0  0  0  0
    4.2853   -6.1317    1.0034 H   0  0  0  0  0  0  0  0  0  0  0  0
    4.4671   -7.1778    3.1920 H   0  0  0  0  0  0  0  0  0  0  0  0
    5.3942   -5.7109    3.0763 H   0  0  0  0  0  0  0  0  0  0  0  0
    2.6849   -5.9888    4.4632 H   0  0  0  0  0  0  0  0  0  0  0  0
    4.2276   -5.7672    5.2554 H   0  0  0  0  0  0  0  0  0  0  0  0
    2.8946   -3.6283    5.0432 H   0  0  0  0  0  0  0  0  0  0  0  0
    4.4655   -3.5152    4.2694 H   0  0  0  0  0  0  0  0  0  0  0  0
    1.7667   -3.9792    2.8792 H   0  0  0  0  0  0  0  0  0  0  0  0
    2.7416   -2.5542    2.8197 H   0  0  0  0  0  0  0  0  0  0  0  0
    5.4546   -4.4922   -0.4625 H   0  0  0  0  0  0  0  0  0  0  0  0
    3.8338   -5.0692   -0.7474 H   0  0  0  0  0  0  0  0  0  0  0  0
    4.6020   -4.0538   -2.7157 H   0  0  0  0  0  0  0  0  0  0  0  0
    5.0571   -1.4115   -1.2529 H   0  0  0  0  0  0  0  0  0  0  0  0
    5.1515   -1.6724   -2.9908 H   0  0  0  0  0  0  0  0  0  0  0  0
    6.2918   -2.4895   -1.9181 H   0  0  0  0  0  0  0  0  0  0  0  0
    2.4622   -2.2872   -1.4750 H   0  0  0  0  0  0  0  0  0  0  0  0
    2.1931   -3.8472   -2.2429 H   0  0  0  0  0  0  0  0  0  0  0  0
    2.7502   -2.4784   -3.1946 H   0  0  0  0  0  0  0  0  0  0  0  0
  1  2  1  0
  1 19  1  0
  1 20  1  0
  1 21  1  0
  2 18  1  0
  2  3  2  0
  3  4  1  0
  4  5  1  0
  5  6  1  0
  5 18  2  0
  6 11  1  0
  6  7  1  0
  6 22  1  6
  7  8  1  0
  7 23  1  0
  7 24  1  0
  8  9  1  0
  8 25  1  0
  8 26  1  0
  9 10  1  0
  9 27  1  0
  9 28  1  0
 10 11  1  0
 10 29  1  0
 10 30  1  0
 11 12  1  0
 12 13  2  0
 12 14  1  0
 14 15  1  0
 14 31  1  0
 14 32  1  0
 15 16  1  0
 15 17  1  0
 15 33  1  0
 16 34  1  0
 16 35  1  0
 16 36  1  0
 17 37  1  0
 17 38  1  0
 17 39  1  0
M  END
>  <i_m_ct_stereo_status>  (235) 
1

>  <s_m_source_file>  (235) 
/var/tmp/pbs.5076255.sched01/tmp9n4xeji_/82rcfztp6i.sdf

>  <i_m_source_file_index>  (235) 
20

>  <i_lp_mmshare_version>  (235) 
48012

>  <i_f3d_flags>  (235) 
0

>  <s_epik_input>  (235) 
W0NIM11jMW5vYyhuMSlbQ0BASF0yW0NIMl1bQ0gyXVtDSDJdW0NIMl1OMkMoPU8pW0NIMl1bQ0hdKFtDSDNdKVtDSDNd

>  <s_epik_cmdline>  (235) 
J2VwaWtfcHl0aG9uJywgJy1waHQnLCAnMi4wJywgJy1waCcsICc3LjAnLCAnLXRuJywgJzgnLCAnLW1hJywgJzIwMCcsICctaW1hZScsICc8aW5maWxlLm1hZT4nLCAnLW9tYWUnLCAnPG91dGZpbGUubWFlPic=

>  <r_lp_tautomer_probability>  (235) 
1

>  <r_epik_Ionization_Penalty>  (235) 
2.47487e-09

>  <r_epik_Ionization_Penalty_Charging>  (235) 
0

>  <r_epik_Ionization_Penalty_Neutral>  (235) 
2.47487e-09

>  <r_epik_State_Penalty>  (235) 
-0

>  <r_epik_Charging_Adjusted_Penalty>  (235) 
0

>  <i_epik_Tot_Q>  (235) 
0

>  <i_epik_Tot_abs_Q>  (235) 
0

>  <s_lp_Force_Field>  (235) 
OPLS3e

>  <r_lp_Energy>  (235) 
13.2779

>  <b_lp_Chiralities_Consistent>  (235) 
1

>  <s_lp_Variant>  (235) 
71:0-1

>  <s_i_glide_gridfile>  (235) 
pfpi4k_grid

>  <i_i_glide_lignum>  (235) 
20

>  <i_i_glide_rotatable_bonds>  (235) 
4

>  <r_i_docking_score>  (235) 
-2.73337

>  <r_i_glide_ligand_efficiency>  (235) 
-0.151854

>  <r_i_glide_ligand_efficiency_sa>  (235) 
-0.39797

>  <r_i_glide_ligand_efficiency_ln>  (235) 
-0.7026

>  <r_i_glide_gscore>  (235) 
-2.73337

>  <r_i_glide_lipo>  (235) 
-0.0185161

>  <r_i_glide_hbond>  (235) 
0

>  <r_i_glide_metal>  (235) 
-0

>  <r_i_glide_rewards>  (235) 
-1.71557

>  <r_i_glide_evdw>  (235) 
-18.8428

>  <r_i_glide_ecoul>  (235) 
-4.19281

>  <r_i_glide_erotb>  (235) 
0.832422

>  <r_i_glide_esite>  (235) 
-0.260642

>  <r_i_glide_emodel>  (235) 
-27.2192

>  <r_i_glide_energy>  (235) 
-23.0356

>  <r_i_glide_einternal>  (235) 
0.708517

>  <r_i_glide_intrahb_reward>  (235) 
-0

>  <i_i_glide_confnum>  (235) 
2

>  <i_i_glide_posenum>  (235) 
38

>  <r_i_glide_eff_state_penalty>  (235) 
0

>  <ligand_id>  (235) 
71

>  <original_smiles>  (235) 
Cc1noc(C2CCCCN2C(=O)CC(C)C)n1

>  <smiles>  (235) 
[H]C([H])([H])c1noc(C2([H])N(C(=O)C([H])([H])C([H])(C([H])([H])[H])C([H])([H])[H])C([H])([H])C([H])([H])C([H])([H])C2([H])[H])n1

$$$$
72:0:0
     RDKit          3D

 29 30  0  0  1  0  0  0  0  0999 V2000
    3.4149    0.1007   -5.6310 C   0  0  0  0  0  0  0  0  0  0  0  0
    3.8018   -0.9181   -4.7217 O   0  0  0  0  0  0  0  0  0  0  0  0
    3.6248   -0.5410   -3.3658 C   0  0  0  0  0  0  0  0  0  0  0  0
    3.8186   -1.7881   -2.4912 C   0  0  0  0  0  0  0  0  0  0  0  0
    3.8048   -1.4559   -1.0708 N   0  0  0  0  0  0  0  0  0  0  0  0
    4.8943   -1.2516   -0.3115 C   0  0  0  0  0  0  0  0  0  0  0  0
    6.0448   -1.4314   -0.7180 O   0  0  0  0  0  0  0  0  0  0  0  0
    4.6339   -0.8020    1.1032 C   0  0  0  0  0  0  0  0  0  0  0  0
    3.3899   -0.2293    1.4966 C   0  0  0  0  0  0  0  0  0  0  0  0
    3.5679    0.0920    2.8085 C   0  0  0  0  0  0  0  0  0  0  0  0
    2.6947    0.7392    3.8242 C   0  0  0  0  0  0  0  0  0  0  0  0
    1.5156    1.5843    3.4075 C   0  0  0  0  0  0  0  0  0  0  0  0
    2.7359    2.2323    4.0296 C   0  0  0  0  0  0  0  0  0  0  0  0
    4.8153   -0.2582    3.2058 O   0  0  0  0  0  0  0  0  0  0  0  0
    5.4925   -0.8086    2.1105 N   0  0  0  0  0  0  0  0  0  0  0  0
    3.5552   -0.2518   -6.6536 H   0  0  0  0  0  0  0  0  0  0  0  0
    4.0118    1.0027   -5.5005 H   0  0  0  0  0  0  0  0  0  0  0  0
    2.3589    0.3562   -5.5156 H   0  0  0  0  0  0  0  0  0  0  0  0
    4.3421    0.2410   -3.1126 H   0  0  0  0  0  0  0  0  0  0  0  0
    2.6267   -0.1300   -3.2048 H   0  0  0  0  0  0  0  0  0  0  0  0
    3.0141   -2.4960   -2.6812 H   0  0  0  0  0  0  0  0  0  0  0  0
    4.7421   -2.2972   -2.7607 H   0  0  0  0  0  0  0  0  0  0  0  0
    2.8883   -1.3276   -0.6500 H   0  0  0  0  0  0  0  0  0  0  0  0
    2.4999   -0.0488    0.9142 H   0  0  0  0  0  0  0  0  0  0  0  0
    2.5874    0.1074    4.7055 H   0  0  0  0  0  0  0  0  0  0  0  0
    1.3492    1.7286    2.3386 H   0  0  0  0  0  0  0  0  0  0  0  0
    0.6161    1.5296    4.0142 H   0  0  0  0  0  0  0  0  0  0  0  0
    2.6346    2.6082    5.0438 H   0  0  0  0  0  0  0  0  0  0  0  0
    3.3981    2.8082    3.3812 H   0  0  0  0  0  0  0  0  0  0  0  0
  1  2  1  0
  1 16  1  0
  1 17  1  0
  1 18  1  0
  2  3  1  0
  3  4  1  0
  3 19  1  0
  3 20  1  0
  4  5  1  0
  4 21  1  0
  4 22  1  0
  5  6  1  0
  5 23  1  0
  6  7  2  0
  6  8  1  0
  8 15  2  0
  8  9  1  0
  9 10  2  0
  9 24  1  0
 10 11  1  0
 10 14  1  0
 11 13  1  0
 11 12  1  0
 11 25  1  0
 12 13  1  0
 12 26  1  0
 12 27  1  0
 13 28  1  0
 13 29  1  0
 14 15  1  0
M  END
>  <i_m_ct_stereo_status>  (236) 
1

>  <s_m_source_file>  (236) 
/var/tmp/pbs.5076255.sched01/tmp9n4xeji_/82rcfztp6i.sdf

>  <i_m_source_file_index>  (236) 
21

>  <i_lp_mmshare_version>  (236) 
48012

>  <i_f3d_flags>  (236) 
0

>  <s_epik_input>  (236) 
W0NIM11PW0NIMl1bQ0gyXVtOSF1DKD1PKWMxW2NIXWMob24xKVtDSF0yW0NIMl1bQ0gyXTI=

>  <s_epik_cmdline>  (236) 
J2VwaWtfcHl0aG9uJywgJy1waHQnLCAnMi4wJywgJy1waCcsICc3LjAnLCAnLXRuJywgJzgnLCAnLW1hJywgJzIwMCcsICctaW1hZScsICc8aW5maWxlLm1hZT4nLCAnLW9tYWUnLCAnPG91dGZpbGUubWFlPic=

>  <r_lp_tautomer_probability>  (236) 
1

>  <r_epik_Ionization_Penalty>  (236) 
7.12345e-06

>  <r_epik_Ionization_Penalty_Charging>  (236) 
0

>  <r_epik_Ionization_Penalty_Neutral>  (236) 
7.12345e-06

>  <r_epik_State_Penalty>  (236) 
-0

>  <r_epik_Charging_Adjusted_Penalty>  (236) 
0

>  <i_epik_Tot_Q>  (236) 
0

>  <i_epik_Tot_abs_Q>  (236) 
0

>  <s_lp_Force_Field>  (236) 
OPLS3e

>  <r_lp_Energy>  (236) 
17.7098

>  <b_lp_Chiralities_Consistent>  (236) 
1

>  <s_lp_Variant>  (236) 
72:0-1

>  <s_i_glide_gridfile>  (236) 
pfpi4k_grid

>  <i_i_glide_lignum>  (236) 
21

>  <i_i_glide_rotatable_bonds>  (236) 
6

>  <r_i_docking_score>  (236) 
-3.05625

>  <r_i_glide_ligand_efficiency>  (236) 
-0.20375

>  <r_i_glide_ligand_efficiency_sa>  (236) 
-0.502491

>  <r_i_glide_ligand_efficiency_ln>  (236) 
-0.824222

>  <r_i_glide_gscore>  (236) 
-3.05625

>  <r_i_glide_lipo>  (236) 
-0.374397

>  <r_i_glide_hbond>  (236) 
-0.447777

>  <r_i_glide_metal>  (236) 
-0

>  <r_i_glide_rewards>  (236) 
-1.97571

>  <r_i_glide_evdw>  (236) 
-22.5424

>  <r_i_glide_ecoul>  (236) 
-6.09989

>  <r_i_glide_erotb>  (236) 
1.87827

>  <r_i_glide_esite>  (236) 
-0.0945426

>  <r_i_glide_emodel>  (236) 
-34.1573

>  <r_i_glide_energy>  (236) 
-28.6423

>  <r_i_glide_einternal>  (236) 
0.869057

>  <r_i_glide_intrahb_reward>  (236) 
-0

>  <i_i_glide_confnum>  (236) 
2

>  <i_i_glide_posenum>  (236) 
36

>  <r_i_glide_eff_state_penalty>  (236) 
0

>  <ligand_id>  (236) 
72

>  <original_smiles>  (236) 
COCCNC(=O)c1cc(C2CC2)on1

>  <smiles>  (236) 
[H]c1c(C(=O)N([H])C([H])([H])C([H])([H])OC([H])([H])[H])noc1C1([H])C([H])([H])C1([H])[H]

$$$$
72:0:1
     RDKit          3D

 29 30  0  0  1  0  0  0  0  0999 V2000
    1.6119   -9.2020    7.4381 C   0  0  0  0  0  0  0  0  0  0  0  0
    0.9256   -8.8607    6.2435 O   0  0  0  0  0  0  0  0  0  0  0  0
    0.6518   -9.9947    5.4328 C   0  0  0  0  0  0  0  0  0  0  0  0
   -0.1906   -9.5659    4.2259 C   0  0  0  0  0  0  0  0  0  0  0  0
    0.5569   -8.7316    3.2975 N   0  0  0  0  0  0  0  0  0  0  0  0
    0.0775   -7.6359    2.6909 C   0  0  0  0  0  0  0  0  0  0  0  0
   -1.0528   -7.1717    2.8655 O   0  0  0  0  0  0  0  0  0  0  0  0
    1.0095   -6.9882    1.7099 C   0  0  0  0  0  0  0  0  0  0  0  0
    2.4223   -7.0119    1.8933 C   0  0  0  0  0  0  0  0  0  0  0  0
    2.8922   -6.2560    0.8641 C   0  0  0  0  0  0  0  0  0  0  0  0
    4.2619   -5.8663    0.4339 C   0  0  0  0  0  0  0  0  0  0  0  0
    5.4068   -5.8584    1.4155 C   0  0  0  0  0  0  0  0  0  0  0  0
    4.8595   -4.5553    0.8712 C   0  0  0  0  0  0  0  0  0  0  0  0
    1.8585   -5.8021    0.1054 O   0  0  0  0  0  0  0  0  0  0  0  0
    0.6605   -6.2628    0.6607 N   0  0  0  0  0  0  0  0  0  0  0  0
    1.8098   -8.2992    8.0148 H   0  0  0  0  0  0  0  0  0  0  0  0
    2.5674   -9.6842    7.2281 H   0  0  0  0  0  0  0  0  0  0  0  0
    1.0155   -9.8657    8.0640 H   0  0  0  0  0  0  0  0  0  0  0  0
    1.5779  -10.4764    5.1130 H   0  0  0  0  0  0  0  0  0  0  0  0
    0.0953  -10.7294    6.0166 H   0  0  0  0  0  0  0  0  0  0  0  0
   -0.5215  -10.4493    3.6793 H   0  0  0  0  0  0  0  0  0  0  0  0
   -1.0898   -9.0555    4.5756 H   0  0  0  0  0  0  0  0  0  0  0  0
    1.4871   -9.0371    3.0517 H   0  0  0  0  0  0  0  0  0  0  0  0
    3.0059   -7.4888    2.6649 H   0  0  0  0  0  0  0  0  0  0  0  0
    4.4671   -6.2072   -0.5800 H   0  0  0  0  0  0  0  0  0  0  0  0
    5.1765   -6.1183    2.4484 H   0  0  0  0  0  0  0  0  0  0  0  0
    6.3855   -6.1742    1.0625 H   0  0  0  0  0  0  0  0  0  0  0  0
    5.4777   -4.0141    0.1589 H   0  0  0  0  0  0  0  0  0  0  0  0
    4.2500   -3.9365    1.5298 H   0  0  0  0  0  0  0  0  0  0  0  0
  1  2  1  0
  1 16  1  0
  1 17  1  0
  1 18  1  0
  2  3  1  0
  3  4  1  0
  3 19  1  0
  3 20  1  0
  4  5  1  0
  4 21  1  0
  4 22  1  0
  5  6  1  0
  5 23  1  0
  6  7  2  0
  6  8  1  0
  8 15  2  0
  8  9  1  0
  9 10  2  0
  9 24  1  0
 10 11  1  0
 10 14  1  0
 11 13  1  0
 11 12  1  0
 11 25  1  0
 12 13  1  0
 12 26  1  0
 12 27  1  0
 13 28  1  0
 13 29  1  0
 14 15  1  0
M  END
>  <i_m_ct_stereo_status>  (237) 
1

>  <s_m_source_file>  (237) 
/var/tmp/pbs.5076255.sched01/tmp9n4xeji_/82rcfztp6i.sdf

>  <i_m_source_file_index>  (237) 
21

>  <i_lp_mmshare_version>  (237) 
48012

>  <i_f3d_flags>  (237) 
0

>  <s_epik_input>  (237) 
W0NIM11PW0NIMl1bQ0gyXVtOSF1DKD1PKWMxW2NIXWMob24xKVtDSF0yW0NIMl1bQ0gyXTI=

>  <s_epik_cmdline>  (237) 
J2VwaWtfcHl0aG9uJywgJy1waHQnLCAnMi4wJywgJy1waCcsICc3LjAnLCAnLXRuJywgJzgnLCAnLW1hJywgJzIwMCcsICctaW1hZScsICc8aW5maWxlLm1hZT4nLCAnLW9tYWUnLCAnPG91dGZpbGUubWFlPic=

>  <r_lp_tautomer_probability>  (237) 
1

>  <r_epik_Ionization_Penalty>  (237) 
7.12345e-06

>  <r_epik_Ionization_Penalty_Charging>  (237) 
0

>  <r_epik_Ionization_Penalty_Neutral>  (237) 
7.12345e-06

>  <r_epik_State_Penalty>  (237) 
-0

>  <r_epik_Charging_Adjusted_Penalty>  (237) 
0

>  <i_epik_Tot_Q>  (237) 
0

>  <i_epik_Tot_abs_Q>  (237) 
0

>  <s_lp_Force_Field>  (237) 
OPLS3e

>  <r_lp_Energy>  (237) 
17.7098

>  <b_lp_Chiralities_Consistent>  (237) 
1

>  <s_lp_Variant>  (237) 
72:0-1

>  <s_i_glide_gridfile>  (237) 
pfpi4k_grid

>  <i_i_glide_lignum>  (237) 
21

>  <i_i_glide_rotatable_bonds>  (237) 
6

>  <r_i_docking_score>  (237) 
-2.66312

>  <r_i_glide_ligand_efficiency>  (237) 
-0.177542

>  <r_i_glide_ligand_efficiency_sa>  (237) 
-0.437855

>  <r_i_glide_ligand_efficiency_ln>  (237) 
-0.7182

>  <r_i_glide_gscore>  (237) 
-2.66312

>  <r_i_glide_lipo>  (237) 
-0.212691

>  <r_i_glide_hbond>  (237) 
-0.142562

>  <r_i_glide_metal>  (237) 
-0

>  <r_i_glide_rewards>  (237) 
-1.97571

>  <r_i_glide_evdw>  (237) 
-16.2258

>  <r_i_glide_ecoul>  (237) 
-7.65305

>  <r_i_glide_erotb>  (237) 
1.87827

>  <r_i_glide_esite>  (237) 
-0.25119

>  <r_i_glide_emodel>  (237) 
-28.0531

>  <r_i_glide_energy>  (237) 
-23.8788

>  <r_i_glide_einternal>  (237) 
2.03688

>  <r_i_glide_intrahb_reward>  (237) 
-0

>  <i_i_glide_confnum>  (237) 
2

>  <i_i_glide_posenum>  (237) 
8

>  <r_i_glide_eff_state_penalty>  (237) 
0

>  <ligand_id>  (237) 
72

>  <original_smiles>  (237) 
COCCNC(=O)c1cc(C2CC2)on1

>  <smiles>  (237) 
[H]c1c(C(=O)N([H])C([H])([H])C([H])([H])OC([H])([H])[H])noc1C1([H])C([H])([H])C1([H])[H]

$$$$
72:0:2
     RDKit          3D

 29 30  0  0  1  0  0  0  0  0999 V2000
    3.6460    0.8403   -5.4295 C   0  0  0  0  0  0  0  0  0  0  0  0
    3.9000   -0.2988   -4.6264 O   0  0  0  0  0  0  0  0  0  0  0  0
    2.7369   -0.7581   -3.9660 C   0  0  0  0  0  0  0  0  0  0  0  0
    3.0753   -1.9790   -3.0983 C   0  0  0  0  0  0  0  0  0  0  0  0
    3.4169   -1.5829   -1.7404 N   0  0  0  0  0  0  0  0  0  0  0  0
    4.6671   -1.4553   -1.2541 C   0  0  0  0  0  0  0  0  0  0  0  0
    5.6824   -1.6790   -1.9199 O   0  0  0  0  0  0  0  0  0  0  0  0
    4.7921   -1.0289    0.1848 C   0  0  0  0  0  0  0  0  0  0  0  0
    3.6565   -0.6584    0.9627 C   0  0  0  0  0  0  0  0  0  0  0  0
    4.1755   -0.3154    2.1717 C   0  0  0  0  0  0  0  0  0  0  0  0
    3.5559    0.1860    3.4296 C   0  0  0  0  0  0  0  0  0  0  0  0
    2.0603    0.3804    3.5405 C   0  0  0  0  0  0  0  0  0  0  0  0
    2.9796    1.5811    3.4975 C   0  0  0  0  0  0  0  0  0  0  0  0
    5.5223   -0.4568    2.1624 O   0  0  0  0  0  0  0  0  0  0  0  0
    5.9071   -0.9101    0.8931 N   0  0  0  0  0  0  0  0  0  0  0  0
    4.5735    1.1449   -5.9035 H   0  0  0  0  0  0  0  0  0  0  0  0
    3.2862    1.6832   -4.8386 H   0  0  0  0  0  0  0  0  0  0  0  0
    2.9322    0.6273   -6.2247 H   0  0  0  0  0  0  0  0  0  0  0  0
    2.2899    0.0463   -3.3765 H   0  0  0  0  0  0  0  0  0  0  0  0
    2.0052   -1.0464   -4.7182 H   0  0  0  0  0  0  0  0  0  0  0  0
    2.2023   -2.6266   -3.0232 H   0  0  0  0  0  0  0  0  0  0  0  0
    3.8575   -2.5801   -3.5633 H   0  0  0  0  0  0  0  0  0  0  0  0
    2.6358   -1.3814   -1.1241 H   0  0  0  0  0  0  0  0  0  0  0  0
    2.6178   -0.6151    0.6882 H   0  0  0  0  0  0  0  0  0  0  0  0
    4.0927   -0.1824    4.3037 H   0  0  0  0  0  0  0  0  0  0  0  0
    1.4605    0.1601    2.6577 H   0  0  0  0  0  0  0  0  0  0  0  0
    1.5918    0.1394    4.4934 H   0  0  0  0  0  0  0  0  0  0  0  0
    3.1052    2.1417    4.4220 H   0  0  0  0  0  0  0  0  0  0  0  0
    3.0040    2.1764    2.5842 H   0  0  0  0  0  0  0  0  0  0  0  0
  1  2  1  0
  1 16  1  0
  1 17  1  0
  1 18  1  0
  2  3  1  0
  3  4  1  0
  3 19  1  0
  3 20  1  0
  4  5  1  0
  4 21  1  0
  4 22  1  0
  5  6  1  0
  5 23  1  0
  6  7  2  0
  6  8  1  0
  8 15  2  0
  8  9  1  0
  9 10  2  0
  9 24  1  0
 10 11  1  0
 10 14  1  0
 11 13  1  0
 11 12  1  0
 11 25  1  0
 12 13  1  0
 12 26  1  0
 12 27  1  0
 13 28  1  0
 13 29  1  0
 14 15  1  0
M  END
>  <i_m_ct_stereo_status>  (238) 
1

>  <s_m_source_file>  (238) 
/var/tmp/pbs.5076255.sched01/tmp9n4xeji_/82rcfztp6i.sdf

>  <i_m_source_file_index>  (238) 
21

>  <i_lp_mmshare_version>  (238) 
48012

>  <i_f3d_flags>  (238) 
0

>  <s_epik_input>  (238) 
W0NIM11PW0NIMl1bQ0gyXVtOSF1DKD1PKWMxW2NIXWMob24xKVtDSF0yW0NIMl1bQ0gyXTI=

>  <s_epik_cmdline>  (238) 
J2VwaWtfcHl0aG9uJywgJy1waHQnLCAnMi4wJywgJy1waCcsICc3LjAnLCAnLXRuJywgJzgnLCAnLW1hJywgJzIwMCcsICctaW1hZScsICc8aW5maWxlLm1hZT4nLCAnLW9tYWUnLCAnPG91dGZpbGUubWFlPic=

>  <r_lp_tautomer_probability>  (238) 
1

>  <r_epik_Ionization_Penalty>  (238) 
7.12345e-06

>  <r_epik_Ionization_Penalty_Charging>  (238) 
0

>  <r_epik_Ionization_Penalty_Neutral>  (238) 
7.12345e-06

>  <r_epik_State_Penalty>  (238) 
-0

>  <r_epik_Charging_Adjusted_Penalty>  (238) 
0

>  <i_epik_Tot_Q>  (238) 
0

>  <i_epik_Tot_abs_Q>  (238) 
0

>  <s_lp_Force_Field>  (238) 
OPLS3e

>  <r_lp_Energy>  (238) 
17.7098

>  <b_lp_Chiralities_Consistent>  (238) 
1

>  <s_lp_Variant>  (238) 
72:0-1

>  <s_i_glide_gridfile>  (238) 
pfpi4k_grid

>  <i_i_glide_lignum>  (238) 
21

>  <i_i_glide_rotatable_bonds>  (238) 
6

>  <r_i_docking_score>  (238) 
-2.62982

>  <r_i_glide_ligand_efficiency>  (238) 
-0.175322

>  <r_i_glide_ligand_efficiency_sa>  (238) 
-0.43238

>  <r_i_glide_ligand_efficiency_ln>  (238) 
-0.70922

>  <r_i_glide_gscore>  (238) 
-2.62982

>  <r_i_glide_lipo>  (238) 
-0.365186

>  <r_i_glide_hbond>  (238) 
-0.18453

>  <r_i_glide_metal>  (238) 
-0

>  <r_i_glide_rewards>  (238) 
-1.97571

>  <r_i_glide_evdw>  (238) 
-20.3692

>  <r_i_glide_ecoul>  (238) 
-5.55049

>  <r_i_glide_erotb>  (238) 
1.87827

>  <r_i_glide_esite>  (238) 
-0.131641

>  <r_i_glide_emodel>  (238) 
-29.5719

>  <r_i_glide_energy>  (238) 
-25.9197

>  <r_i_glide_einternal>  (238) 
2.85508

>  <r_i_glide_intrahb_reward>  (238) 
-0

>  <i_i_glide_confnum>  (238) 
2

>  <i_i_glide_posenum>  (238) 
2

>  <r_i_glide_eff_state_penalty>  (238) 
0

>  <ligand_id>  (238) 
72

>  <original_smiles>  (238) 
COCCNC(=O)c1cc(C2CC2)on1

>  <smiles>  (238) 
[H]c1c(C(=O)N([H])C([H])([H])C([H])([H])OC([H])([H])[H])noc1C1([H])C([H])([H])C1([H])[H]

$$$$
73:0:0
     RDKit          3D

 31 33  0  0  1  0  0  0  0  0999 V2000
    2.7973   -9.3656    1.6518 C   0  0  0  0  0  0  0  0  0  0  0  0
    4.0729   -8.5993    1.7924 C   0  0  0  0  0  0  0  0  0  0  0  0
    5.1233   -9.0354    2.5931 N   0  0  0  0  0  0  0  0  0  0  0  0
    6.2065   -8.2096    2.6094 N   0  0  0  0  0  0  0  0  0  0  0  0
    5.8001   -7.2539    1.7968 C   0  0  0  0  0  0  0  0  0  0  0  0
    4.5350   -7.4322    1.2682 C   0  0  0  0  0  0  0  0  0  0  0  0
    4.1914   -6.3155    0.3595 C   0  0  0  0  0  0  0  0  0  0  0  0
    5.4067   -5.4541    0.4013 N   0  0  0  0  0  0  0  0  0  0  0  0
    5.5145   -4.2625   -0.2314 C   0  0  0  0  0  0  0  0  0  0  0  0
    6.4023   -3.4453    0.0247 O   0  0  0  0  0  0  0  0  0  0  0  0
    4.6509   -4.1165   -1.2541 N   0  0  0  0  0  0  0  0  0  0  0  0
    4.4444   -2.9969   -2.1050 C   0  0  0  0  0  0  0  0  0  0  0  0
    4.5567   -1.6483   -1.6852 C   0  0  0  0  0  0  0  0  0  0  0  0
    4.2269   -0.6318   -2.6106 C   0  0  0  0  0  0  0  0  0  0  0  0
    3.8087   -0.9874   -3.9037 C   0  0  0  0  0  0  0  0  0  0  0  0
    3.7228   -2.2654   -4.3093 N   0  0  0  0  0  0  0  0  0  0  0  0
    4.0138   -3.2363   -3.4249 C   0  0  0  0  0  0  0  0  0  0  0  0
    6.4455   -6.0086    1.3184 C   0  0  0  0  0  0  0  0  0  0  0  0
    5.1097   -9.8933    3.1309 H   0  0  0  0  0  0  0  0  0  0  0  0
    2.1130   -8.8811    0.9561 H   0  0  0  0  0  0  0  0  0  0  0  0
    2.2939   -9.4719    2.6141 H   0  0  0  0  0  0  0  0  0  0  0  0
    3.0008  -10.3664    1.2810 H   0  0  0  0  0  0  0  0  0  0  0  0
    4.0176   -6.6663   -0.6542 H   0  0  0  0  0  0  0  0  0  0  0  0
    3.3259   -5.7538    0.7084 H   0  0  0  0  0  0  0  0  0  0  0  0
    4.1413   -4.9549   -1.5096 H   0  0  0  0  0  0  0  0  0  0  0  0
    4.8470   -1.3898   -0.6746 H   0  0  0  0  0  0  0  0  0  0  0  0
    4.2753    0.4097   -2.3422 H   0  0  0  0  0  0  0  0  0  0  0  0
    3.5620   -0.2323   -4.6379 H   0  0  0  0  0  0  0  0  0  0  0  0
    3.8908   -4.2414   -3.7930 H   0  0  0  0  0  0  0  0  0  0  0  0
    6.6691   -5.3294    2.1408 H   0  0  0  0  0  0  0  0  0  0  0  0
    7.3715   -6.2196    0.7834 H   0  0  0  0  0  0  0  0  0  0  0  0
  1  2  1  0
  1 20  1  0
  1 21  1  0
  1 22  1  0
  2  6  2  0
  2  3  1  0
  3 19  1  0
  3  4  1  0
  4  5  2  0
  5 18  1  0
  5  6  1  0
  6  7  1  0
  7  8  1  0
  7 23  1  0
  7 24  1  0
  8  9  1  0
  8 18  1  0
  9 10  2  0
  9 11  1  0
 11 12  1  0
 11 25  1  0
 12 17  1  0
 12 13  2  0
 13 14  1  0
 13 26  1  0
 14 15  2  0
 14 27  1  0
 15 16  1  0
 15 28  1  0
 16 17  2  0
 17 29  1  0
 18 30  1  0
 18 31  1  0
M  END
>  <i_m_ct_stereo_status>  (239) 
1

>  <s_m_source_file>  (239) 
/var/tmp/pbs.5076255.sched01/tmp9n4xeji_/82rcfztp6i.sdf

>  <i_m_source_file_index>  (239) 
22

>  <i_lp_mmshare_version>  (239) 
48012

>  <i_f3d_flags>  (239) 
0

>  <s_epik_input>  (239) 
bjFbbkhdYyhbQ0gzXSljKGMxMilbQ0gyXU4oW0NIMl0yKUMoPU8pW05IXWMzW2NIXVtjSF1bY0hdbltjSF0z

>  <s_epik_cmdline>  (239) 
J2VwaWtfcHl0aG9uJywgJy1waHQnLCAnMi4wJywgJy1waCcsICc3LjAnLCAnLXRuJywgJzgnLCAnLW1hJywgJzIwMCcsICctaW1hZScsICc8aW5maWxlLm1hZT4nLCAnLW9tYWUnLCAnPG91dGZpbGUubWFlPic=

>  <r_lp_tautomer_probability>  (239) 
0.5

>  <r_epik_Ionization_Penalty>  (239) 
0.0111883

>  <r_epik_Ionization_Penalty_Charging>  (239) 
0

>  <r_epik_Ionization_Penalty_Neutral>  (239) 
0.0111883

>  <r_epik_State_Penalty>  (239) 
0.41068

>  <r_epik_Charging_Adjusted_Penalty>  (239) 
0.41068

>  <i_epik_Tot_Q>  (239) 
0

>  <i_epik_Tot_abs_Q>  (239) 
0

>  <s_lp_Force_Field>  (239) 
OPLS3e

>  <r_lp_Energy>  (239) 
23.7629

>  <b_lp_Chiralities_Consistent>  (239) 
1

>  <s_lp_Variant>  (239) 
73:0-1

>  <s_i_glide_gridfile>  (239) 
pfpi4k_grid

>  <i_i_glide_lignum>  (239) 
22

>  <i_i_glide_rotatable_bonds>  (239) 
3

>  <r_i_docking_score>  (239) 
-4.87364

>  <r_i_glide_ligand_efficiency>  (239) 
-0.270758

>  <r_i_glide_ligand_efficiency_sa>  (239) 
-0.709587

>  <r_i_glide_ligand_efficiency_ln>  (239) 
-1.25275

>  <r_i_glide_gscore>  (239) 
-4.87364

>  <r_i_glide_lipo>  (239) 
-0.79833

>  <r_i_glide_hbond>  (239) 
-0.608

>  <r_i_glide_metal>  (239) 
-0

>  <r_i_glide_rewards>  (239) 
-1.97783

>  <r_i_glide_evdw>  (239) 
-24.8757

>  <r_i_glide_ecoul>  (239) 
-7.26508

>  <r_i_glide_erotb>  (239) 
0.880197

>  <r_i_glide_esite>  (239) 
-0.0361296

>  <r_i_glide_emodel>  (239) 
-42.4161

>  <r_i_glide_energy>  (239) 
-32.1408

>  <r_i_glide_einternal>  (239) 
2.44738

>  <r_i_glide_intrahb_reward>  (239) 
-0

>  <i_i_glide_confnum>  (239) 
2

>  <i_i_glide_posenum>  (239) 
3

>  <r_i_glide_eff_state_penalty>  (239) 
0

>  <ligand_id>  (239) 
73

>  <original_smiles>  (239) 
Cc1[nH]nc2c1CN(C(=O)Nc1cccnc1)C2

>  <smiles>  (239) 
[H]c1nc([H])c(N([H])C(=O)N2C([H])([H])c3nn([H])c(C([H])([H])[H])c3C2([H])[H])c([H])c1[H]

$$$$
73:0:1
     RDKit          3D

 31 33  0  0  1  0  0  0  0  0999 V2000
    4.4454   -3.4522   -3.3337 C   0  0  0  0  0  0  0  0  0  0  0  0
    5.1829   -2.8438   -2.1808 C   0  0  0  0  0  0  0  0  0  0  0  0
    6.5703   -2.8429   -2.0829 N   0  0  0  0  0  0  0  0  0  0  0  0
    7.0530   -2.2559   -0.9544 N   0  0  0  0  0  0  0  0  0  0  0  0
    5.9335   -1.8860   -0.3612 C   0  0  0  0  0  0  0  0  0  0  0  0
    4.7734   -2.2091   -1.0441 C   0  0  0  0  0  0  0  0  0  0  0  0
    3.5803   -1.7481   -0.3038 C   0  0  0  0  0  0  0  0  0  0  0  0
    4.1625   -1.0807    0.8894 N   0  0  0  0  0  0  0  0  0  0  0  0
    3.4430   -0.5339    1.8950 C   0  0  0  0  0  0  0  0  0  0  0  0
    3.9677   -0.1632    2.9470 O   0  0  0  0  0  0  0  0  0  0  0  0
    2.1279   -0.3726    1.6360 N   0  0  0  0  0  0  0  0  0  0  0  0
    1.1258    0.0859    2.5374 C   0  0  0  0  0  0  0  0  0  0  0  0
    0.1093    0.9531    2.0869 C   0  0  0  0  0  0  0  0  0  0  0  0
   -0.9118    1.3359    2.9832 C   0  0  0  0  0  0  0  0  0  0  0  0
   -0.8906    0.8182    4.2909 C   0  0  0  0  0  0  0  0  0  0  0  0
    0.0581   -0.0347    4.7223 N   0  0  0  0  0  0  0  0  0  0  0  0
    1.0496   -0.3782    3.8696 C   0  0  0  0  0  0  0  0  0  0  0  0
    5.6552   -1.1617    0.9031 C   0  0  0  0  0  0  0  0  0  0  0  0
    7.2000   -3.2116   -2.7885 H   0  0  0  0  0  0  0  0  0  0  0  0
    3.3675   -3.3412   -3.2161 H   0  0  0  0  0  0  0  0  0  0  0  0
    4.6711   -4.5162   -3.4066 H   0  0  0  0  0  0  0  0  0  0  0  0
    4.7314   -2.9813   -4.2725 H   0  0  0  0  0  0  0  0  0  0  0  0
    3.0143   -1.0330   -0.8846 H   0  0  0  0  0  0  0  0  0  0  0  0
    2.9421   -2.5750    0.0038 H   0  0  0  0  0  0  0  0  0  0  0  0
    1.8142   -0.5994    0.6900 H   0  0  0  0  0  0  0  0  0  0  0  0
    0.0994    1.3134    1.0674 H   0  0  0  0  0  0  0  0  0  0  0  0
   -1.7043    2.0030    2.6735 H   0  0  0  0  0  0  0  0  0  0  0  0
   -1.6520    1.0999    5.0099 H   0  0  0  0  0  0  0  0  0  0  0  0
    1.7574   -1.0880    4.2599 H   0  0  0  0  0  0  0  0  0  0  0  0
    6.0435   -1.7074    1.7651 H   0  0  0  0  0  0  0  0  0  0  0  0
    6.1027   -0.1673    0.9009 H   0  0  0  0  0  0  0  0  0  0  0  0
  1  2  1  0
  1 20  1  0
  1 21  1  0
  1 22  1  0
  2  6  2  0
  2  3  1  0
  3 19  1  0
  3  4  1  0
  4  5  2  0
  5 18  1  0
  5  6  1  0
  6  7  1  0
  7  8  1  0
  7 23  1  0
  7 24  1  0
  8  9  1  0
  8 18  1  0
  9 10  2  0
  9 11  1  0
 11 12  1  0
 11 25  1  0
 12 17  1  0
 12 13  2  0
 13 14  1  0
 13 26  1  0
 14 15  2  0
 14 27  1  0
 15 16  1  0
 15 28  1  0
 16 17  2  0
 17 29  1  0
 18 30  1  0
 18 31  1  0
M  END
>  <i_m_ct_stereo_status>  (240) 
1

>  <s_m_source_file>  (240) 
/var/tmp/pbs.5076255.sched01/tmp9n4xeji_/82rcfztp6i.sdf

>  <i_m_source_file_index>  (240) 
22

>  <i_lp_mmshare_version>  (240) 
48012

>  <i_f3d_flags>  (240) 
0

>  <s_epik_input>  (240) 
bjFbbkhdYyhbQ0gzXSljKGMxMilbQ0gyXU4oW0NIMl0yKUMoPU8pW05IXWMzW2NIXVtjSF1bY0hdbltjSF0z

>  <s_epik_cmdline>  (240) 
J2VwaWtfcHl0aG9uJywgJy1waHQnLCAnMi4wJywgJy1waCcsICc3LjAnLCAnLXRuJywgJzgnLCAnLW1hJywgJzIwMCcsICctaW1hZScsICc8aW5maWxlLm1hZT4nLCAnLW9tYWUnLCAnPG91dGZpbGUubWFlPic=

>  <r_lp_tautomer_probability>  (240) 
0.5

>  <r_epik_Ionization_Penalty>  (240) 
0.0111883

>  <r_epik_Ionization_Penalty_Charging>  (240) 
0

>  <r_epik_Ionization_Penalty_Neutral>  (240) 
0.0111883

>  <r_epik_State_Penalty>  (240) 
0.41068

>  <r_epik_Charging_Adjusted_Penalty>  (240) 
0.41068

>  <i_epik_Tot_Q>  (240) 
0

>  <i_epik_Tot_abs_Q>  (240) 
0

>  <s_lp_Force_Field>  (240) 
OPLS3e

>  <r_lp_Energy>  (240) 
23.7629

>  <b_lp_Chiralities_Consistent>  (240) 
1

>  <s_lp_Variant>  (240) 
73:0-1

>  <s_i_glide_gridfile>  (240) 
pfpi4k_grid

>  <i_i_glide_lignum>  (240) 
22

>  <i_i_glide_rotatable_bonds>  (240) 
3

>  <r_i_docking_score>  (240) 
-4.34083

>  <r_i_glide_ligand_efficiency>  (240) 
-0.241157

>  <r_i_glide_ligand_efficiency_sa>  (240) 
-0.632011

>  <r_i_glide_ligand_efficiency_ln>  (240) 
-1.11579

>  <r_i_glide_gscore>  (240) 
-4.34083

>  <r_i_glide_lipo>  (240) 
-0.367853

>  <r_i_glide_hbond>  (240) 
-0.53028

>  <r_i_glide_metal>  (240) 
-0

>  <r_i_glide_rewards>  (240) 
-1.75272

>  <r_i_glide_evdw>  (240) 
-24.9162

>  <r_i_glide_ecoul>  (240) 
-8.15715

>  <r_i_glide_erotb>  (240) 
0.880197

>  <r_i_glide_esite>  (240) 
-0.100798

>  <r_i_glide_emodel>  (240) 
-41.4017

>  <r_i_glide_energy>  (240) 
-33.0733

>  <r_i_glide_einternal>  (240) 
3.8641

>  <r_i_glide_intrahb_reward>  (240) 
-0

>  <i_i_glide_confnum>  (240) 
5

>  <i_i_glide_posenum>  (240) 
1

>  <r_i_glide_eff_state_penalty>  (240) 
0

>  <ligand_id>  (240) 
73

>  <original_smiles>  (240) 
Cc1[nH]nc2c1CN(C(=O)Nc1cccnc1)C2

>  <smiles>  (240) 
[H]c1nc([H])c(N([H])C(=O)N2C([H])([H])c3nn([H])c(C([H])([H])[H])c3C2([H])[H])c([H])c1[H]

$$$$
73:0:2
     RDKit          3D

 31 33  0  0  1  0  0  0  0  0999 V2000
    4.2897   -3.3188   -3.3765 C   0  0  0  0  0  0  0  0  0  0  0  0
    5.0766   -2.7354   -2.2463 C   0  0  0  0  0  0  0  0  0  0  0  0
    6.4607   -2.8425   -2.1464 N   0  0  0  0  0  0  0  0  0  0  0  0
    6.9904   -2.2485   -1.0412 N   0  0  0  0  0  0  0  0  0  0  0  0
    5.9002   -1.7844   -0.4559 C   0  0  0  0  0  0  0  0  0  0  0  0
    4.7163   -2.0276   -1.1349 C   0  0  0  0  0  0  0  0  0  0  0  0
    3.5591   -1.4507   -0.4146 C   0  0  0  0  0  0  0  0  0  0  0  0
    4.1957   -0.8002    0.7538 N   0  0  0  0  0  0  0  0  0  0  0  0
    3.5266   -0.1784    1.7465 C   0  0  0  0  0  0  0  0  0  0  0  0
    4.0755    0.0958    2.8130 O   0  0  0  0  0  0  0  0  0  0  0  0
    2.2448    0.1516    1.4570 N   0  0  0  0  0  0  0  0  0  0  0  0
    1.3888    1.0199    2.1986 C   0  0  0  0  0  0  0  0  0  0  0  0
   -0.0115    0.8959    2.0793 C   0  0  0  0  0  0  0  0  0  0  0  0
   -0.8561    1.7567    2.8109 C   0  0  0  0  0  0  0  0  0  0  0  0
   -0.2654    2.7547    3.6065 C   0  0  0  0  0  0  0  0  0  0  0  0
    1.0681    2.9062    3.7078 N   0  0  0  0  0  0  0  0  0  0  0  0
    1.8723    2.0736    3.0142 C   0  0  0  0  0  0  0  0  0  0  0  0
    5.6787   -0.9968    0.7762 C   0  0  0  0  0  0  0  0  0  0  0  0
    7.0586   -3.2862   -2.8424 H   0  0  0  0  0  0  0  0  0  0  0  0
    3.2244   -3.1218   -3.2647 H   0  0  0  0  0  0  0  0  0  0  0  0
    4.4380   -4.3960   -3.4211 H   0  0  0  0  0  0  0  0  0  0  0  0
    4.6124   -2.8963   -4.3236 H   0  0  0  0  0  0  0  0  0  0  0  0
    3.0222   -0.7195   -1.0126 H   0  0  0  0  0  0  0  0  0  0  0  0
    2.8687   -2.2178   -0.0715 H   0  0  0  0  0  0  0  0  0  0  0  0
    1.8642   -0.2284    0.5914 H   0  0  0  0  0  0  0  0  0  0  0  0
   -0.4383    0.1435    1.4417 H   0  0  0  0  0  0  0  0  0  0  0  0
   -1.9317    1.6777    2.7446 H   0  0  0  0  0  0  0  0  0  0  0  0
   -0.8814    3.4497    4.1696 H   0  0  0  0  0  0  0  0  0  0  0  0
    2.9185    2.3052    3.1108 H   0  0  0  0  0  0  0  0  0  0  0  0
    6.0248   -1.5373    1.6599 H   0  0  0  0  0  0  0  0  0  0  0  0
    6.2052   -0.0405    0.7395 H   0  0  0  0  0  0  0  0  0  0  0  0
  1  2  1  0
  1 20  1  0
  1 21  1  0
  1 22  1  0
  2  6  2  0
  2  3  1  0
  3 19  1  0
  3  4  1  0
  4  5  2  0
  5 18  1  0
  5  6  1  0
  6  7  1  0
  7  8  1  0
  7 23  1  0
  7 24  1  0
  8  9  1  0
  8 18  1  0
  9 10  2  0
  9 11  1  0
 11 12  1  0
 11 25  1  0
 12 17  1  0
 12 13  2  0
 13 14  1  0
 13 26  1  0
 14 15  2  0
 14 27  1  0
 15 16  1  0
 15 28  1  0
 16 17  2  0
 17 29  1  0
 18 30  1  0
 18 31  1  0
M  END
>  <i_m_ct_stereo_status>  (241) 
1

>  <s_m_source_file>  (241) 
/var/tmp/pbs.5076255.sched01/tmp9n4xeji_/82rcfztp6i.sdf

>  <i_m_source_file_index>  (241) 
22

>  <i_lp_mmshare_version>  (241) 
48012

>  <i_f3d_flags>  (241) 
0

>  <s_epik_input>  (241) 
bjFbbkhdYyhbQ0gzXSljKGMxMilbQ0gyXU4oW0NIMl0yKUMoPU8pW05IXWMzW2NIXVtjSF1bY0hdbltjSF0z

>  <s_epik_cmdline>  (241) 
J2VwaWtfcHl0aG9uJywgJy1waHQnLCAnMi4wJywgJy1waCcsICc3LjAnLCAnLXRuJywgJzgnLCAnLW1hJywgJzIwMCcsICctaW1hZScsICc8aW5maWxlLm1hZT4nLCAnLW9tYWUnLCAnPG91dGZpbGUubWFlPic=

>  <r_lp_tautomer_probability>  (241) 
0.5

>  <r_epik_Ionization_Penalty>  (241) 
0.0111883

>  <r_epik_Ionization_Penalty_Charging>  (241) 
0

>  <r_epik_Ionization_Penalty_Neutral>  (241) 
0.0111883

>  <r_epik_State_Penalty>  (241) 
0.41068

>  <r_epik_Charging_Adjusted_Penalty>  (241) 
0.41068

>  <i_epik_Tot_Q>  (241) 
0

>  <i_epik_Tot_abs_Q>  (241) 
0

>  <s_lp_Force_Field>  (241) 
OPLS3e

>  <r_lp_Energy>  (241) 
23.7629

>  <b_lp_Chiralities_Consistent>  (241) 
1

>  <s_lp_Variant>  (241) 
73:0-1

>  <s_i_glide_gridfile>  (241) 
pfpi4k_grid

>  <i_i_glide_lignum>  (241) 
22

>  <i_i_glide_rotatable_bonds>  (241) 
3

>  <r_i_docking_score>  (241) 
-4.29979

>  <r_i_glide_ligand_efficiency>  (241) 
-0.238877

>  <r_i_glide_ligand_efficiency_sa>  (241) 
-0.626035

>  <r_i_glide_ligand_efficiency_ln>  (241) 
-1.10524

>  <r_i_glide_gscore>  (241) 
-4.29979

>  <r_i_glide_lipo>  (241) 
-0.391216

>  <r_i_glide_hbond>  (241) 
-0.480106

>  <r_i_glide_metal>  (241) 
-0

>  <r_i_glide_rewards>  (241) 
-1.82636

>  <r_i_glide_evdw>  (241) 
-25.7898

>  <r_i_glide_ecoul>  (241) 
-7.51406

>  <r_i_glide_erotb>  (241) 
0.880197

>  <r_i_glide_esite>  (241) 
-0.0657091

>  <r_i_glide_emodel>  (241) 
-41.2331

>  <r_i_glide_energy>  (241) 
-33.3039

>  <r_i_glide_einternal>  (241) 
4.32779

>  <r_i_glide_intrahb_reward>  (241) 
-0

>  <i_i_glide_confnum>  (241) 
3

>  <i_i_glide_posenum>  (241) 
21

>  <r_i_glide_eff_state_penalty>  (241) 
0

>  <ligand_id>  (241) 
73

>  <original_smiles>  (241) 
Cc1[nH]nc2c1CN(C(=O)Nc1cccnc1)C2

>  <smiles>  (241) 
[H]c1nc([H])c(N([H])C(=O)N2C([H])([H])c3nn([H])c(C([H])([H])[H])c3C2([H])[H])c([H])c1[H]

$$$$
73:1:0
     RDKit          3D

 31 33  0  0  1  0  0  0  0  0999 V2000
   -2.7307    2.9352    5.9738 C   0  0  0  0  0  0  0  0  0  0  0  0
   -1.8891    2.8549    4.7352 C   0  0  0  0  0  0  0  0  0  0  0  0
   -1.8425    3.8916    3.8839 N   0  0  0  0  0  0  0  0  0  0  0  0
   -1.0144    3.4814    2.8817 N   0  0  0  0  0  0  0  0  0  0  0  0
   -0.5466    2.2261    3.1317 C   0  0  0  0  0  0  0  0  0  0  0  0
   -1.0661    1.7842    4.2731 C   0  0  0  0  0  0  0  0  0  0  0  0
   -0.5756    0.4073    4.5609 C   0  0  0  0  0  0  0  0  0  0  0  0
    0.3165    0.1341    3.3967 N   0  0  0  0  0  0  0  0  0  0  0  0
    1.0142   -1.0096    3.2509 C   0  0  0  0  0  0  0  0  0  0  0  0
    0.9446   -1.9259    4.0742 O   0  0  0  0  0  0  0  0  0  0  0  0
    1.7417   -1.0570    2.1153 N   0  0  0  0  0  0  0  0  0  0  0  0
    2.7007   -2.0095    1.6661 C   0  0  0  0  0  0  0  0  0  0  0  0
    2.9758   -3.2466    2.2973 C   0  0  0  0  0  0  0  0  0  0  0  0
    3.9446   -4.0986    1.7326 C   0  0  0  0  0  0  0  0  0  0  0  0
    4.6076   -3.6888    0.5596 C   0  0  0  0  0  0  0  0  0  0  0  0
    4.3668   -2.5100   -0.0546 N   0  0  0  0  0  0  0  0  0  0  0  0
    3.4246   -1.7035    0.4874 C   0  0  0  0  0  0  0  0  0  0  0  0
    0.3580    1.2861    2.4653 C   0  0  0  0  0  0  0  0  0  0  0  0
   -0.7318    4.0372    2.0517 H   0  0  0  0  0  0  0  0  0  0  0  0
   -2.6709    2.0105    6.5456 H   0  0  0  0  0  0  0  0  0  0  0  0
   -3.7791    3.1013    5.7171 H   0  0  0  0  0  0  0  0  0  0  0  0
   -2.4124    3.7521    6.6179 H   0  0  0  0  0  0  0  0  0  0  0  0
   -1.3929   -0.3135    4.6095 H   0  0  0  0  0  0  0  0  0  0  0  0
   -0.0205    0.3605    5.5001 H   0  0  0  0  0  0  0  0  0  0  0  0
    1.6206   -0.2598    1.5005 H   0  0  0  0  0  0  0  0  0  0  0  0
    2.4660   -3.5644    3.1977 H   0  0  0  0  0  0  0  0  0  0  0  0
    4.1765   -5.0509    2.1894 H   0  0  0  0  0  0  0  0  0  0  0  0
    5.3537   -4.3181    0.0996 H   0  0  0  0  0  0  0  0  0  0  0  0
    3.2549   -0.7717   -0.0361 H   0  0  0  0  0  0  0  0  0  0  0  0
    1.3656    1.6956    2.3882 H   0  0  0  0  0  0  0  0  0  0  0  0
   -0.0103    1.0183    1.4743 H   0  0  0  0  0  0  0  0  0  0  0  0
  1 20  1  0
  1 21  1  0
  1 22  1  0
  1  2  1  0
  2  3  2  0
  2  6  1  0
  3  4  1  0
  4 19  1  0
  4  5  1  0
  5 18  1  0
  5  6  2  0
  6  7  1  0
  7  8  1  0
  7 23  1  0
  7 24  1  0
  8  9  1  0
  8 18  1  0
  9 10  2  0
  9 11  1  0
 11 12  1  0
 11 25  1  0
 12 17  1  0
 12 13  2  0
 13 14  1  0
 13 26  1  0
 14 15  2  0
 14 27  1  0
 15 16  1  0
 15 28  1  0
 16 17  2  0
 17 29  1  0
 18 30  1  0
 18 31  1  0
M  END
>  <i_m_ct_stereo_status>  (242) 
1

>  <s_m_source_file>  (242) 
/var/tmp/pbs.5076255.sched01/tmp9n4xeji_/82rcfztp6i.sdf

>  <i_m_source_file_index>  (242) 
23

>  <i_lp_mmshare_version>  (242) 
48012

>  <i_f3d_flags>  (242) 
0

>  <s_epik_input>  (242) 
bjFbbkhdYyhbQ0gzXSljKGMxMilbQ0gyXU4oW0NIMl0yKUMoPU8pW05IXWMzW2NIXVtjSF1bY0hdbltjSF0z

>  <s_epik_cmdline>  (242) 
J2VwaWtfcHl0aG9uJywgJy1waHQnLCAnMi4wJywgJy1waCcsICc3LjAnLCAnLXRuJywgJzgnLCAnLW1hJywgJzIwMCcsICctaW1hZScsICc8aW5maWxlLm1hZT4nLCAnLW9tYWUnLCAnPG91dGZpbGUubWFlPic=

>  <r_lp_tautomer_probability>  (242) 
0.5

>  <r_epik_Ionization_Penalty>  (242) 
0.0108981

>  <r_epik_Ionization_Penalty_Charging>  (242) 
0

>  <r_epik_Ionization_Penalty_Neutral>  (242) 
0.0108981

>  <r_epik_State_Penalty>  (242) 
0.41068

>  <r_epik_Charging_Adjusted_Penalty>  (242) 
0.41068

>  <i_epik_Tot_Q>  (242) 
0

>  <i_epik_Tot_abs_Q>  (242) 
0

>  <s_lp_Force_Field>  (242) 
OPLS3e

>  <r_lp_Energy>  (242) 
26.0442

>  <b_lp_Chiralities_Consistent>  (242) 
1

>  <s_lp_Variant>  (242) 
73:0-2

>  <s_i_glide_gridfile>  (242) 
pfpi4k_grid

>  <i_i_glide_lignum>  (242) 
23

>  <i_i_glide_rotatable_bonds>  (242) 
3

>  <r_i_docking_score>  (242) 
-3.29366

>  <r_i_glide_ligand_efficiency>  (242) 
-0.182981

>  <r_i_glide_ligand_efficiency_sa>  (242) 
-0.479547

>  <r_i_glide_ligand_efficiency_ln>  (242) 
-0.846619

>  <r_i_glide_gscore>  (242) 
-3.29366

>  <r_i_glide_lipo>  (242) 
-0.127668

>  <r_i_glide_hbond>  (242) 
-0.16

>  <r_i_glide_metal>  (242) 
-0

>  <r_i_glide_rewards>  (242) 
-1.75047

>  <r_i_glide_evdw>  (242) 
-16.8833

>  <r_i_glide_ecoul>  (242) 
-7.3492

>  <r_i_glide_erotb>  (242) 
0.880197

>  <r_i_glide_esite>  (242) 
-0.18918

>  <r_i_glide_emodel>  (242) 
-30.512

>  <r_i_glide_energy>  (242) 
-24.2325

>  <r_i_glide_einternal>  (242) 
0.551742

>  <r_i_glide_intrahb_reward>  (242) 
-0

>  <i_i_glide_confnum>  (242) 
3

>  <i_i_glide_posenum>  (242) 
26

>  <r_i_glide_eff_state_penalty>  (242) 
0

>  <ligand_id>  (242) 
73

>  <original_smiles>  (242) 
Cc1[nH]nc2c1CN(C(=O)Nc1cccnc1)C2

>  <smiles>  (242) 
[H]c1nc([H])c(N([H])C(=O)N2C([H])([H])c3c(C([H])([H])[H])nn([H])c3C2([H])[H])c([H])c1[H]

$$$$
73:1:1
     RDKit          3D

 31 33  0  0  1  0  0  0  0  0999 V2000
    5.6558   -3.6570    0.9323 C   0  0  0  0  0  0  0  0  0  0  0  0
    5.0536   -2.2887    0.8299 C   0  0  0  0  0  0  0  0  0  0  0  0
    5.5981   -1.3823    0.0045 N   0  0  0  0  0  0  0  0  0  0  0  0
    4.8330   -0.2688    0.1420 N   0  0  0  0  0  0  0  0  0  0  0  0
    3.8270   -0.4943    1.0434 C   0  0  0  0  0  0  0  0  0  0  0  0
    3.9241   -1.7356    1.5053 C   0  0  0  0  0  0  0  0  0  0  0  0
    2.8479   -2.0232    2.4983 C   0  0  0  0  0  0  0  0  0  0  0  0
    2.0911   -0.7368    2.5271 N   0  0  0  0  0  0  0  0  0  0  0  0
    1.0255   -0.5023    3.3234 C   0  0  0  0  0  0  0  0  0  0  0  0
    0.6075   -1.3201    4.1457 O   0  0  0  0  0  0  0  0  0  0  0  0
    0.4368    0.6843    3.0880 N   0  0  0  0  0  0  0  0  0  0  0  0
   -0.5324    1.3869    3.8599 C   0  0  0  0  0  0  0  0  0  0  0  0
   -0.8327    1.1039    5.2142 C   0  0  0  0  0  0  0  0  0  0  0  0
   -1.7870    1.9038    5.8763 C   0  0  0  0  0  0  0  0  0  0  0  0
   -2.4012    2.9492    5.1625 C   0  0  0  0  0  0  0  0  0  0  0  0
   -2.1132    3.2439    3.8832 N   0  0  0  0  0  0  0  0  0  0  0  0
   -1.1976    2.4761    3.2529 C   0  0  0  0  0  0  0  0  0  0  0  0
    2.7083    0.2635    1.6134 C   0  0  0  0  0  0  0  0  0  0  0  0
    5.0218    0.6007   -0.3585 H   0  0  0  0  0  0  0  0  0  0  0  0
    5.1152   -4.2678    1.6539 H   0  0  0  0  0  0  0  0  0  0  0  0
    6.6960   -3.6008    1.2519 H   0  0  0  0  0  0  0  0  0  0  0  0
    5.6313   -4.1686   -0.0294 H   0  0  0  0  0  0  0  0  0  0  0  0
    3.2500   -2.2641    3.4843 H   0  0  0  0  0  0  0  0  0  0  0  0
    2.2007   -2.8412    2.1799 H   0  0  0  0  0  0  0  0  0  0  0  0
    0.7751    1.1759    2.2752 H   0  0  0  0  0  0  0  0  0  0  0  0
   -0.3366    0.3126    5.7511 H   0  0  0  0  0  0  0  0  0  0  0  0
   -2.0539    1.7343    6.9085 H   0  0  0  0  0  0  0  0  0  0  0  0
   -3.1496    3.5721    5.6284 H   0  0  0  0  0  0  0  0  0  0  0  0
   -0.9837    2.7450    2.2282 H   0  0  0  0  0  0  0  0  0  0  0  0
    2.0023    0.5663    0.8424 H   0  0  0  0  0  0  0  0  0  0  0  0
    3.0678    1.1370    2.1573 H   0  0  0  0  0  0  0  0  0  0  0  0
  1 20  1  0
  1 21  1  0
  1 22  1  0
  1  2  1  0
  2  3  2  0
  2  6  1  0
  3  4  1  0
  4 19  1  0
  4  5  1  0
  5 18  1  0
  5  6  2  0
  6  7  1  0
  7  8  1  0
  7 23  1  0
  7 24  1  0
  8  9  1  0
  8 18  1  0
  9 10  2  0
  9 11  1  0
 11 12  1  0
 11 25  1  0
 12 17  1  0
 12 13  2  0
 13 14  1  0
 13 26  1  0
 14 15  2  0
 14 27  1  0
 15 16  1  0
 15 28  1  0
 16 17  2  0
 17 29  1  0
 18 30  1  0
 18 31  1  0
M  END
>  <i_m_ct_stereo_status>  (243) 
1

>  <s_m_source_file>  (243) 
/var/tmp/pbs.5076255.sched01/tmp9n4xeji_/82rcfztp6i.sdf

>  <i_m_source_file_index>  (243) 
23

>  <i_lp_mmshare_version>  (243) 
48012

>  <i_f3d_flags>  (243) 
0

>  <s_epik_input>  (243) 
bjFbbkhdYyhbQ0gzXSljKGMxMilbQ0gyXU4oW0NIMl0yKUMoPU8pW05IXWMzW2NIXVtjSF1bY0hdbltjSF0z

>  <s_epik_cmdline>  (243) 
J2VwaWtfcHl0aG9uJywgJy1waHQnLCAnMi4wJywgJy1waCcsICc3LjAnLCAnLXRuJywgJzgnLCAnLW1hJywgJzIwMCcsICctaW1hZScsICc8aW5maWxlLm1hZT4nLCAnLW9tYWUnLCAnPG91dGZpbGUubWFlPic=

>  <r_lp_tautomer_probability>  (243) 
0.5

>  <r_epik_Ionization_Penalty>  (243) 
0.0108981

>  <r_epik_Ionization_Penalty_Charging>  (243) 
0

>  <r_epik_Ionization_Penalty_Neutral>  (243) 
0.0108981

>  <r_epik_State_Penalty>  (243) 
0.41068

>  <r_epik_Charging_Adjusted_Penalty>  (243) 
0.41068

>  <i_epik_Tot_Q>  (243) 
0

>  <i_epik_Tot_abs_Q>  (243) 
0

>  <s_lp_Force_Field>  (243) 
OPLS3e

>  <r_lp_Energy>  (243) 
26.0442

>  <b_lp_Chiralities_Consistent>  (243) 
1

>  <s_lp_Variant>  (243) 
73:0-2

>  <s_i_glide_gridfile>  (243) 
pfpi4k_grid

>  <i_i_glide_lignum>  (243) 
23

>  <i_i_glide_rotatable_bonds>  (243) 
3

>  <r_i_docking_score>  (243) 
-3.11382

>  <r_i_glide_ligand_efficiency>  (243) 
-0.17299

>  <r_i_glide_ligand_efficiency_sa>  (243) 
-0.453362

>  <r_i_glide_ligand_efficiency_ln>  (243) 
-0.800392

>  <r_i_glide_gscore>  (243) 
-3.11382

>  <r_i_glide_lipo>  (243) 
-0.111321

>  <r_i_glide_hbond>  (243) 
-0.32

>  <r_i_glide_metal>  (243) 
-0

>  <r_i_glide_rewards>  (243) 
-1.75047

>  <r_i_glide_evdw>  (243) 
-20.359

>  <r_i_glide_ecoul>  (243) 
-4.86889

>  <r_i_glide_erotb>  (243) 
0.880197

>  <r_i_glide_esite>  (243) 
-0.0639452

>  <r_i_glide_emodel>  (243) 
-30.6615

>  <r_i_glide_energy>  (243) 
-25.2279

>  <r_i_glide_einternal>  (243) 
1.49254

>  <r_i_glide_intrahb_reward>  (243) 
-0

>  <i_i_glide_confnum>  (243) 
3

>  <i_i_glide_posenum>  (243) 
8

>  <r_i_glide_eff_state_penalty>  (243) 
0

>  <ligand_id>  (243) 
73

>  <original_smiles>  (243) 
Cc1[nH]nc2c1CN(C(=O)Nc1cccnc1)C2

>  <smiles>  (243) 
[H]c1nc([H])c(N([H])C(=O)N2C([H])([H])c3c(C([H])([H])[H])nn([H])c3C2([H])[H])c([H])c1[H]

$$$$
73:1:2
     RDKit          3D

 31 33  0  0  1  0  0  0  0  0999 V2000
   -2.6619    2.8037    6.2343 C   0  0  0  0  0  0  0  0  0  0  0  0
   -1.8087    2.9328    5.0071 C   0  0  0  0  0  0  0  0  0  0  0  0
   -1.7840    4.0876    4.3198 N   0  0  0  0  0  0  0  0  0  0  0  0
   -0.9318    3.8616    3.2814 N   0  0  0  0  0  0  0  0  0  0  0  0
   -0.4401    2.5888    3.3407 C   0  0  0  0  0  0  0  0  0  0  0  0
   -0.9547    1.9679    4.3934 C   0  0  0  0  0  0  0  0  0  0  0  0
   -0.4332    0.5749    4.4861 C   0  0  0  0  0  0  0  0  0  0  0  0
    0.4903    0.5026    3.3139 N   0  0  0  0  0  0  0  0  0  0  0  0
    1.1967   -0.5981    2.9862 C   0  0  0  0  0  0  0  0  0  0  0  0
    1.0371   -1.6761    3.5601 O   0  0  0  0  0  0  0  0  0  0  0  0
    2.1134   -0.3748    2.0249 N   0  0  0  0  0  0  0  0  0  0  0  0
    3.0922   -1.2433    1.4554 C   0  0  0  0  0  0  0  0  0  0  0  0
    3.1132   -2.6491    1.6202 C   0  0  0  0  0  0  0  0  0  0  0  0
    4.1318   -3.3904    0.9860 C   0  0  0  0  0  0  0  0  0  0  0  0
    5.0841   -2.7057    0.2076 C   0  0  0  0  0  0  0  0  0  0  0  0
    5.0769   -1.3703    0.0371 N   0  0  0  0  0  0  0  0  0  0  0  0
    4.0956   -0.6662    0.6440 C   0  0  0  0  0  0  0  0  0  0  0  0
    0.4976    1.7825    2.5554 C   0  0  0  0  0  0  0  0  0  0  0  0
   -0.6927    4.5362    2.5592 H   0  0  0  0  0  0  0  0  0  0  0  0
   -2.5760    1.8066    6.6660 H   0  0  0  0  0  0  0  0  0  0  0  0
   -3.7123    2.9721    6.0004 H   0  0  0  0  0  0  0  0  0  0  0  0
   -2.3708    3.5259    6.9963 H   0  0  0  0  0  0  0  0  0  0  0  0
   -1.2252   -0.1710    4.4093 H   0  0  0  0  0  0  0  0  0  0  0  0
    0.1165    0.4028    5.4121 H   0  0  0  0  0  0  0  0  0  0  0  0
    2.1268    0.5677    1.6701 H   0  0  0  0  0  0  0  0  0  0  0  0
    2.3738   -3.1702    2.2032 H   0  0  0  0  0  0  0  0  0  0  0  0
    4.1795   -4.4644    1.0886 H   0  0  0  0  0  0  0  0  0  0  0  0
    5.8767   -3.2452   -0.2907 H   0  0  0  0  0  0  0  0  0  0  0  0
    4.1202    0.4025    0.4799 H   0  0  0  0  0  0  0  0  0  0  0  0
    1.4877    2.2400    2.5426 H   0  0  0  0  0  0  0  0  0  0  0  0
    0.1401    1.6455    1.5343 H   0  0  0  0  0  0  0  0  0  0  0  0
  1 20  1  0
  1 21  1  0
  1 22  1  0
  1  2  1  0
  2  3  2  0
  2  6  1  0
  3  4  1  0
  4 19  1  0
  4  5  1  0
  5 18  1  0
  5  6  2  0
  6  7  1  0
  7  8  1  0
  7 23  1  0
  7 24  1  0
  8  9  1  0
  8 18  1  0
  9 10  2  0
  9 11  1  0
 11 12  1  0
 11 25  1  0
 12 17  1  0
 12 13  2  0
 13 14  1  0
 13 26  1  0
 14 15  2  0
 14 27  1  0
 15 16  1  0
 15 28  1  0
 16 17  2  0
 17 29  1  0
 18 30  1  0
 18 31  1  0
M  END
>  <i_m_ct_stereo_status>  (244) 
1

>  <s_m_source_file>  (244) 
/var/tmp/pbs.5076255.sched01/tmp9n4xeji_/82rcfztp6i.sdf

>  <i_m_source_file_index>  (244) 
23

>  <i_lp_mmshare_version>  (244) 
48012

>  <i_f3d_flags>  (244) 
0

>  <s_epik_input>  (244) 
bjFbbkhdYyhbQ0gzXSljKGMxMilbQ0gyXU4oW0NIMl0yKUMoPU8pW05IXWMzW2NIXVtjSF1bY0hdbltjSF0z

>  <s_epik_cmdline>  (244) 
J2VwaWtfcHl0aG9uJywgJy1waHQnLCAnMi4wJywgJy1waCcsICc3LjAnLCAnLXRuJywgJzgnLCAnLW1hJywgJzIwMCcsICctaW1hZScsICc8aW5maWxlLm1hZT4nLCAnLW9tYWUnLCAnPG91dGZpbGUubWFlPic=

>  <r_lp_tautomer_probability>  (244) 
0.5

>  <r_epik_Ionization_Penalty>  (244) 
0.0108981

>  <r_epik_Ionization_Penalty_Charging>  (244) 
0

>  <r_epik_Ionization_Penalty_Neutral>  (244) 
0.0108981

>  <r_epik_State_Penalty>  (244) 
0.41068

>  <r_epik_Charging_Adjusted_Penalty>  (244) 
0.41068

>  <i_epik_Tot_Q>  (244) 
0

>  <i_epik_Tot_abs_Q>  (244) 
0

>  <s_lp_Force_Field>  (244) 
OPLS3e

>  <r_lp_Energy>  (244) 
26.0442

>  <b_lp_Chiralities_Consistent>  (244) 
1

>  <s_lp_Variant>  (244) 
73:0-2

>  <s_i_glide_gridfile>  (244) 
pfpi4k_grid

>  <i_i_glide_lignum>  (244) 
23

>  <i_i_glide_rotatable_bonds>  (244) 
3

>  <r_i_docking_score>  (244) 
-3.08258

>  <r_i_glide_ligand_efficiency>  (244) 
-0.171255

>  <r_i_glide_ligand_efficiency_sa>  (244) 
-0.448814

>  <r_i_glide_ligand_efficiency_ln>  (244) 
-0.792362

>  <r_i_glide_gscore>  (244) 
-3.08258

>  <r_i_glide_lipo>  (244) 
-0.243881

>  <r_i_glide_hbond>  (244) 
-0.125622

>  <r_i_glide_metal>  (244) 
-0

>  <r_i_glide_rewards>  (244) 
-1.75047

>  <r_i_glide_evdw>  (244) 
-20.9312

>  <r_i_glide_ecoul>  (244) 
-3.99754

>  <r_i_glide_erotb>  (244) 
0.880197

>  <r_i_glide_esite>  (244) 
-0.196614

>  <r_i_glide_emodel>  (244) 
-30.692

>  <r_i_glide_energy>  (244) 
-24.9288

>  <r_i_glide_einternal>  (244) 
0.695884

>  <r_i_glide_intrahb_reward>  (244) 
-0

>  <i_i_glide_confnum>  (244) 
3

>  <i_i_glide_posenum>  (244) 
3

>  <r_i_glide_eff_state_penalty>  (244) 
0

>  <ligand_id>  (244) 
73

>  <original_smiles>  (244) 
Cc1[nH]nc2c1CN(C(=O)Nc1cccnc1)C2

>  <smiles>  (244) 
[H]c1nc([H])c(N([H])C(=O)N2C([H])([H])c3c(C([H])([H])[H])nn([H])c3C2([H])[H])c([H])c1[H]

$$$$
74:0:0
     RDKit          3D

 18 19  0  0  1  0  0  0  0  0999 V2000
    2.9832   -5.3472    0.7850 C   0  0  0  0  0  0  0  0  0  0  0  0
    1.7519   -5.8555    1.2715 O   0  0  0  0  0  0  0  0  0  0  0  0
    1.6913   -7.1724    1.6793 C   0  0  0  0  0  0  0  0  0  0  0  0
    2.7663   -8.0485    1.6832 C   0  0  0  0  0  0  0  0  0  0  0  0
    2.5892   -9.3970    2.0988 C   0  0  0  0  0  0  0  0  0  0  0  0
    1.3571   -9.8458    2.5154 C   0  0  0  0  0  0  0  0  0  0  0  0
    0.3119   -8.9768    2.5095 N   0  0  0  0  0  0  0  0  0  0  0  0
   -0.9633   -9.2454    2.8731 N   0  0  0  0  0  0  0  0  0  0  0  0
   -1.5546   -8.0739    2.6977 C   0  0  0  0  0  0  0  0  0  0  0  0
   -0.7732   -7.0560    2.2393 N   0  0  0  0  0  0  0  0  0  0  0  0
    0.4193   -7.6349    2.1120 C   0  0  0  0  0  0  0  0  0  0  0  0
    2.8448   -4.2949    0.5297 H   0  0  0  0  0  0  0  0  0  0  0  0
    3.2953   -5.8721   -0.1190 H   0  0  0  0  0  0  0  0  0  0  0  0
    3.7696   -5.4037    1.5400 H   0  0  0  0  0  0  0  0  0  0  0  0
    3.7501   -7.7276    1.3511 H   0  0  0  0  0  0  0  0  0  0  0  0
    3.4208  -10.0971    2.0784 H   0  0  0  0  0  0  0  0  0  0  0  0
    1.1595  -10.8646    2.8413 H   0  0  0  0  0  0  0  0  0  0  0  0
   -2.6035   -7.9399    2.9127 H   0  0  0  0  0  0  0  0  0  0  0  0
  1  2  1  0
  1 12  1  0
  1 13  1  0
  1 14  1  0
  2  3  1  0
  3 11  1  0
  3  4  2  0
  4  5  1  0
  4 15  1  0
  5  6  2  0
  5 16  1  0
  6  7  1  0
  6 17  1  0
  7 11  1  0
  7  8  1  0
  8  9  2  0
  9 10  1  0
  9 18  1  0
 10 11  2  0
M  END
>  <i_m_ct_stereo_status>  (245) 
1

>  <s_m_source_file>  (245) 
/var/tmp/pbs.5076255.sched01/tmp9n4xeji_/82rcfztp6i.sdf

>  <i_m_source_file_index>  (245) 
24

>  <i_lp_mmshare_version>  (245) 
48012

>  <i_f3d_flags>  (245) 
0

>  <s_epik_input>  (245) 
W2NIXTFbY0hdW2NIXWMoT1tDSDNdKWMobjEyKW5bY0hdbjI=

>  <s_epik_cmdline>  (245) 
J2VwaWtfcHl0aG9uJywgJy1waHQnLCAnMi4wJywgJy1waCcsICc3LjAnLCAnLXRuJywgJzgnLCAnLW1hJywgJzIwMCcsICctaW1hZScsICc8aW5maWxlLm1hZT4nLCAnLW9tYWUnLCAnPG91dGZpbGUubWFlPic=

>  <r_epik_Ionization_Penalty>  (245) 
0.000911684

>  <r_epik_Ionization_Penalty_Charging>  (245) 
0

>  <r_epik_Ionization_Penalty_Neutral>  (245) 
0.000911684

>  <r_epik_State_Penalty>  (245) 
0.000590606

>  <r_epik_Charging_Adjusted_Penalty>  (245) 
0.000590606

>  <i_epik_Tot_Q>  (245) 
0

>  <i_epik_Tot_abs_Q>  (245) 
0

>  <s_lp_Force_Field>  (245) 
OPLS3e

>  <r_lp_Energy>  (245) 
20.1292

>  <b_lp_Chiralities_Consistent>  (245) 
1

>  <s_lp_Variant>  (245) 
74:0-1

>  <s_i_glide_gridfile>  (245) 
pfpi4k_grid

>  <i_i_glide_lignum>  (245) 
24

>  <i_i_glide_rotatable_bonds>  (245) 
1

>  <r_i_docking_score>  (245) 
-4.17113

>  <r_i_glide_ligand_efficiency>  (245) 
-0.379194

>  <r_i_glide_ligand_efficiency_sa>  (245) 
-0.84332

>  <r_i_glide_ligand_efficiency_ln>  (245) 
-1.22756

>  <r_i_glide_gscore>  (245) 
-4.17113

>  <r_i_glide_lipo>  (245) 
-0.117324

>  <r_i_glide_hbond>  (245) 
-0.218424

>  <r_i_glide_metal>  (245) 
-0

>  <r_i_glide_rewards>  (245) 
-2.25

>  <r_i_glide_evdw>  (245) 
-16.7389

>  <r_i_glide_ecoul>  (245) 
-4.23854

>  <r_i_glide_erotb>  (245) 
0

>  <r_i_glide_esite>  (245) 
-0.112658

>  <r_i_glide_emodel>  (245) 
-27.7332

>  <r_i_glide_energy>  (245) 
-20.9775

>  <r_i_glide_einternal>  (245) 
0.0167514

>  <r_i_glide_intrahb_reward>  (245) 
-0

>  <i_i_glide_confnum>  (245) 
1

>  <i_i_glide_posenum>  (245) 
17

>  <r_i_glide_eff_state_penalty>  (245) 
0

>  <ligand_id>  (245) 
74

>  <original_smiles>  (245) 
COc1cccn2ncnc12

>  <smiles>  (245) 
[H]c1nc2c(OC([H])([H])[H])c([H])c([H])c([H])n2n1

$$$$
74:0:1
     RDKit          3D

 18 19  0  0  1  0  0  0  0  0999 V2000
    2.9930  -11.3605    3.2016 C   0  0  0  0  0  0  0  0  0  0  0  0
    2.8833  -10.0447    2.6836 O   0  0  0  0  0  0  0  0  0  0  0  0
    1.6374   -9.4607    2.5959 C   0  0  0  0  0  0  0  0  0  0  0  0
    0.4576  -10.0599    3.0046 C   0  0  0  0  0  0  0  0  0  0  0  0
   -0.7759   -9.3669    2.8809 C   0  0  0  0  0  0  0  0  0  0  0  0
   -0.8211   -8.1001    2.3427 C   0  0  0  0  0  0  0  0  0  0  0  0
    0.3433   -7.5233    1.9368 N   0  0  0  0  0  0  0  0  0  0  0  0
    0.4888   -6.2865    1.3803 N   0  0  0  0  0  0  0  0  0  0  0  0
    1.8067   -6.2255    1.1956 C   0  0  0  0  0  0  0  0  0  0  0  0
    2.5248   -7.3117    1.5887 N   0  0  0  0  0  0  0  0  0  0  0  0
    1.5961   -8.1476    2.0472 C   0  0  0  0  0  0  0  0  0  0  0  0
    4.0447  -11.6485    3.1894 H   0  0  0  0  0  0  0  0  0  0  0  0
    2.4483  -12.0812    2.5894 H   0  0  0  0  0  0  0  0  0  0  0  0
    2.6450  -11.4120    4.2355 H   0  0  0  0  0  0  0  0  0  0  0  0
    0.4523  -11.0589    3.4300 H   0  0  0  0  0  0  0  0  0  0  0  0
   -1.6947   -9.8443    3.2120 H   0  0  0  0  0  0  0  0  0  0  0  0
   -1.7402   -7.5390    2.2135 H   0  0  0  0  0  0  0  0  0  0  0  0
    2.2813   -5.3589    0.7596 H   0  0  0  0  0  0  0  0  0  0  0  0
  1  2  1  0
  1 12  1  0
  1 13  1  0
  1 14  1  0
  2  3  1  0
  3 11  1  0
  3  4  2  0
  4  5  1  0
  4 15  1  0
  5  6  2  0
  5 16  1  0
  6  7  1  0
  6 17  1  0
  7 11  1  0
  7  8  1  0
  8  9  2  0
  9 10  1  0
  9 18  1  0
 10 11  2  0
M  END
>  <i_m_ct_stereo_status>  (246) 
1

>  <s_m_source_file>  (246) 
/var/tmp/pbs.5076255.sched01/tmp9n4xeji_/82rcfztp6i.sdf

>  <i_m_source_file_index>  (246) 
24

>  <i_lp_mmshare_version>  (246) 
48012

>  <i_f3d_flags>  (246) 
0

>  <s_epik_input>  (246) 
W2NIXTFbY0hdW2NIXWMoT1tDSDNdKWMobjEyKW5bY0hdbjI=

>  <s_epik_cmdline>  (246) 
J2VwaWtfcHl0aG9uJywgJy1waHQnLCAnMi4wJywgJy1waCcsICc3LjAnLCAnLXRuJywgJzgnLCAnLW1hJywgJzIwMCcsICctaW1hZScsICc8aW5maWxlLm1hZT4nLCAnLW9tYWUnLCAnPG91dGZpbGUubWFlPic=

>  <r_epik_Ionization_Penalty>  (246) 
0.000911684

>  <r_epik_Ionization_Penalty_Charging>  (246) 
0

>  <r_epik_Ionization_Penalty_Neutral>  (246) 
0.000911684

>  <r_epik_State_Penalty>  (246) 
0.000590606

>  <r_epik_Charging_Adjusted_Penalty>  (246) 
0.000590606

>  <i_epik_Tot_Q>  (246) 
0

>  <i_epik_Tot_abs_Q>  (246) 
0

>  <s_lp_Force_Field>  (246) 
OPLS3e

>  <r_lp_Energy>  (246) 
20.1292

>  <b_lp_Chiralities_Consistent>  (246) 
1

>  <s_lp_Variant>  (246) 
74:0-1

>  <s_i_glide_gridfile>  (246) 
pfpi4k_grid

>  <i_i_glide_lignum>  (246) 
24

>  <i_i_glide_rotatable_bonds>  (246) 
1

>  <r_i_docking_score>  (246) 
-4.10832

>  <r_i_glide_ligand_efficiency>  (246) 
-0.373484

>  <r_i_glide_ligand_efficiency_sa>  (246) 
-0.83062

>  <r_i_glide_ligand_efficiency_ln>  (246) 
-1.20908

>  <r_i_glide_gscore>  (246) 
-4.10832

>  <r_i_glide_lipo>  (246) 
-0.0886778

>  <r_i_glide_hbond>  (246) 
-0.16

>  <r_i_glide_metal>  (246) 
-0

>  <r_i_glide_rewards>  (246) 
-2.25

>  <r_i_glide_evdw>  (246) 
-15.6879

>  <r_i_glide_ecoul>  (246) 
-4.55832

>  <r_i_glide_erotb>  (246) 
0

>  <r_i_glide_esite>  (246) 
-0.1415

>  <r_i_glide_emodel>  (246) 
-26.9122

>  <r_i_glide_energy>  (246) 
-20.2462

>  <r_i_glide_einternal>  (246) 
0.0018605

>  <r_i_glide_intrahb_reward>  (246) 
-0

>  <i_i_glide_confnum>  (246) 
2

>  <i_i_glide_posenum>  (246) 
9

>  <r_i_glide_eff_state_penalty>  (246) 
0

>  <ligand_id>  (246) 
74

>  <original_smiles>  (246) 
COc1cccn2ncnc12

>  <smiles>  (246) 
[H]c1nc2c(OC([H])([H])[H])c([H])c([H])c([H])n2n1

$$$$
74:0:2
     RDKit          3D

 18 19  0  0  1  0  0  0  0  0999 V2000
   -2.1818   -8.1657    3.6342 C   0  0  0  0  0  0  0  0  0  0  0  0
   -1.1447   -7.5362    2.9075 O   0  0  0  0  0  0  0  0  0  0  0  0
    0.0334   -8.2233    2.7238 C   0  0  0  0  0  0  0  0  0  0  0  0
    0.2500   -9.5361    3.1191 C   0  0  0  0  0  0  0  0  0  0  0  0
    1.5052  -10.1544    2.8805 C   0  0  0  0  0  0  0  0  0  0  0  0
    2.5230   -9.4641    2.2609 C   0  0  0  0  0  0  0  0  0  0  0  0
    2.3012   -8.1754    1.8862 N   0  0  0  0  0  0  0  0  0  0  0  0
    3.1929   -7.3420    1.2857 N   0  0  0  0  0  0  0  0  0  0  0  0
    2.4772   -6.2314    1.1416 C   0  0  0  0  0  0  0  0  0  0  0  0
    1.1812   -6.2744    1.5804 N   0  0  0  0  0  0  0  0  0  0  0  0
    1.0808   -7.5107    2.0774 C   0  0  0  0  0  0  0  0  0  0  0  0
   -3.0086   -7.4603    3.6835 H   0  0  0  0  0  0  0  0  0  0  0  0
   -1.8726   -8.3954    4.6556 H   0  0  0  0  0  0  0  0  0  0  0  0
   -2.5331   -9.0720    3.1373 H   0  0  0  0  0  0  0  0  0  0  0  0
   -0.5306  -10.1155    3.6076 H   0  0  0  0  0  0  0  0  0  0  0  0
    1.6757  -11.1888    3.1761 H   0  0  0  0  0  0  0  0  0  0  0  0
    3.4959   -9.8993    2.0412 H   0  0  0  0  0  0  0  0  0  0  0  0
    2.8987   -5.3481    0.6787 H   0  0  0  0  0  0  0  0  0  0  0  0
  1  2  1  0
  1 12  1  0
  1 13  1  0
  1 14  1  0
  2  3  1  0
  3 11  1  0
  3  4  2  0
  4  5  1  0
  4 15  1  0
  5  6  2  0
  5 16  1  0
  6  7  1  0
  6 17  1  0
  7 11  1  0
  7  8  1  0
  8  9  2  0
  9 10  1  0
  9 18  1  0
 10 11  2  0
M  END
>  <i_m_ct_stereo_status>  (247) 
1

>  <s_m_source_file>  (247) 
/var/tmp/pbs.5076255.sched01/tmp9n4xeji_/82rcfztp6i.sdf

>  <i_m_source_file_index>  (247) 
24

>  <i_lp_mmshare_version>  (247) 
48012

>  <i_f3d_flags>  (247) 
0

>  <s_epik_input>  (247) 
W2NIXTFbY0hdW2NIXWMoT1tDSDNdKWMobjEyKW5bY0hdbjI=

>  <s_epik_cmdline>  (247) 
J2VwaWtfcHl0aG9uJywgJy1waHQnLCAnMi4wJywgJy1waCcsICc3LjAnLCAnLXRuJywgJzgnLCAnLW1hJywgJzIwMCcsICctaW1hZScsICc8aW5maWxlLm1hZT4nLCAnLW9tYWUnLCAnPG91dGZpbGUubWFlPic=

>  <r_epik_Ionization_Penalty>  (247) 
0.000911684

>  <r_epik_Ionization_Penalty_Charging>  (247) 
0

>  <r_epik_Ionization_Penalty_Neutral>  (247) 
0.000911684

>  <r_epik_State_Penalty>  (247) 
0.000590606

>  <r_epik_Charging_Adjusted_Penalty>  (247) 
0.000590606

>  <i_epik_Tot_Q>  (247) 
0

>  <i_epik_Tot_abs_Q>  (247) 
0

>  <s_lp_Force_Field>  (247) 
OPLS3e

>  <r_lp_Energy>  (247) 
20.1292

>  <b_lp_Chiralities_Consistent>  (247) 
1

>  <s_lp_Variant>  (247) 
74:0-1

>  <s_i_glide_gridfile>  (247) 
pfpi4k_grid

>  <i_i_glide_lignum>  (247) 
24

>  <i_i_glide_rotatable_bonds>  (247) 
1

>  <r_i_docking_score>  (247) 
-4.01817

>  <r_i_glide_ligand_efficiency>  (247) 
-0.365289

>  <r_i_glide_ligand_efficiency_sa>  (247) 
-0.812394

>  <r_i_glide_ligand_efficiency_ln>  (247) 
-1.18255

>  <r_i_glide_gscore>  (247) 
-4.01817

>  <r_i_glide_lipo>  (247) 
-0.108723

>  <r_i_glide_hbond>  (247) 
-0.0887009

>  <r_i_glide_metal>  (247) 
-0

>  <r_i_glide_rewards>  (247) 
-2.25

>  <r_i_glide_evdw>  (247) 
-16.6672

>  <r_i_glide_ecoul>  (247) 
-4.44002

>  <r_i_glide_erotb>  (247) 
0

>  <r_i_glide_esite>  (247) 
-0.071388

>  <r_i_glide_emodel>  (247) 
-27.5852

>  <r_i_glide_energy>  (247) 
-21.1072

>  <r_i_glide_einternal>  (247) 
0.0536822

>  <r_i_glide_intrahb_reward>  (247) 
-0

>  <i_i_glide_confnum>  (247) 
1

>  <i_i_glide_posenum>  (247) 
35

>  <r_i_glide_eff_state_penalty>  (247) 
0

>  <ligand_id>  (247) 
74

>  <original_smiles>  (247) 
COc1cccn2ncnc12

>  <smiles>  (247) 
[H]c1nc2c(OC([H])([H])[H])c([H])c([H])c([H])n2n1

$$$$
75:0:0
     RDKit          3D

 68 74  0  0  1  0  0  0  0  0999 V2000
    5.1517   -4.2249    5.3312 C   0  0  0  0  0  0  0  0  0  0  0  0
    4.5658   -4.0514    3.9870 N   0  0  1  0  0  0  0  0  0  0  0  0
    4.8463   -2.6817    3.4331 C   0  0  0  0  0  0  0  0  0  0  0  0
    4.2971   -2.4001    1.9980 C   0  0  0  0  0  0  0  0  0  0  0  0
    4.9864   -3.0603    0.7438 C   0  0  1  0  0  0  0  0  0  0  0  0
    4.0827   -2.8694   -0.4467 C   0  0  0  0  0  0  0  0  0  0  0  0
    3.0237   -3.7384   -0.7889 C   0  0  0  0  0  0  0  0  0  0  0  0
    2.2625   -3.4537   -1.9134 C   0  0  0  0  0  0  0  0  0  0  0  0
    2.6168   -2.3279   -2.7111 C   0  0  0  0  0  0  0  0  0  0  0  0
    3.7695   -1.5362   -2.3749 C   0  0  0  0  0  0  0  0  0  0  0  0
    4.1245   -0.5089   -3.1760 O   0  0  0  0  0  0  0  0  0  0  0  0
    4.5262   -1.8419   -1.2104 C   0  0  0  0  0  0  0  0  0  0  0  0
    5.7409   -1.3490   -0.7858 O   0  0  0  0  0  0  0  0  0  0  0  0
    6.2218   -2.2805    0.2034 C   0  0  2  0  0  0  0  0  0  0  0  0
    7.1665   -3.3514   -0.4176 C   0  0  0  0  0  0  0  0  0  0  0  0
    7.5329   -3.0888   -1.9007 C   0  0  0  0  0  0  0  0  0  0  0  0
    8.4958   -3.4098    0.3543 C   0  0  0  0  0  0  0  0  0  0  0  0
    6.3720   -4.6806   -0.2995 C   0  0  0  0  0  0  0  0  0  0  0  0
    5.3646   -4.5623    0.8381 C   0  0  1  0  0  0  0  0  0  0  0  0
    6.0510   -4.9464    2.1526 C   0  0  0  0  0  0  0  0  0  0  0  0
    4.8932   -5.2078    3.0920 C   0  0  1  0  0  0  0  0  0  0  0  0
    3.9943   -6.1255    2.2124 C   0  0  1  0  0  0  0  0  0  0  0  0
    2.6157   -6.6169    2.7638 C   0  0  0  0  0  0  0  0  0  0  0  0
    1.9126   -7.5558    1.7405 C   0  0  0  0  0  0  0  0  0  0  0  0
    0.5035   -7.9342    2.1859 C   0  0  0  0  0  0  0  0  0  0  0  0
   -0.3339   -6.6988    2.5704 C   0  0  0  0  0  0  0  0  0  0  0  0
    0.3489   -5.9121    3.7101 C   0  0  0  0  0  0  0  0  0  0  0  0
    1.7205   -5.4564    3.3038 C   0  0  0  0  0  0  0  0  0  0  0  0
    4.1245   -5.5409    0.7348 C   0  0  1  0  0  0  0  0  0  0  0  0
    2.8492   -4.8705    0.1346 C   0  0  0  0  0  0  0  0  0  0  0  0
    6.2445   -4.1872    5.2903 H   0  0  0  0  0  0  0  0  0  0  0  0
    4.8700   -5.1864    5.7758 H   0  0  0  0  0  0  0  0  0  0  0  0
    4.8269   -3.4445    6.0284 H   0  0  0  0  0  0  0  0  0  0  0  0
    4.3820   -1.9642    4.1147 H   0  0  0  0  0  0  0  0  0  0  0  0
    5.9035   -2.4384    3.4919 H   0  0  0  0  0  0  0  0  0  0  0  0
    3.2336   -2.6472    2.0242 H   0  0  0  0  0  0  0  0  0  0  0  0
    4.3195   -1.3212    1.8540 H   0  0  0  0  0  0  0  0  0  0  0  0
    1.4005   -4.0629   -2.1630 H   0  0  0  0  0  0  0  0  0  0  0  0
    2.0276   -2.1300   -3.5844 H   0  0  0  0  0  0  0  0  0  0  0  0
    3.3920   -0.2243   -3.7014 H   0  0  0  0  0  0  0  0  0  0  0  0
    6.7215   -1.7130    0.9817 H   0  0  0  0  0  0  0  0  0  0  0  0
    8.2123   -3.8510   -2.2811 H   0  0  0  0  0  0  0  0  0  0  0  0
    8.0555   -2.1456   -2.0218 H   0  0  0  0  0  0  0  0  0  0  0  0
    6.6650   -3.0774   -2.5592 H   0  0  0  0  0  0  0  0  0  0  0  0
    9.1075   -4.2492    0.0292 H   0  0  0  0  0  0  0  0  0  0  0  0
    8.3547   -3.5182    1.4215 H   0  0  0  0  0  0  0  0  0  0  0  0
    9.0763   -2.5008    0.2050 H   0  0  0  0  0  0  0  0  0  0  0  0
    5.7853   -4.8171   -1.2139 H   0  0  0  0  0  0  0  0  0  0  0  0
    7.0170   -5.5535   -0.1761 H   0  0  0  0  0  0  0  0  0  0  0  0
    6.6006   -5.8882    2.0593 H   0  0  0  0  0  0  0  0  0  0  0  0
    6.7552   -4.2217    2.5089 H   0  0  0  0  0  0  0  0  0  0  0  0
    4.0733   -4.6372    2.7370 H   0  0  0  0  0  0  0  0  0  0  0  0
    4.5823   -7.0553    2.1831 H   0  0  0  0  0  0  0  0  0  0  0  0
    2.8416   -7.2671    3.6350 H   0  0  0  0  0  0  0  0  0  0  0  0
    1.7349   -7.0995    0.8036 H   0  0  0  0  0  0  0  0  0  0  0  0
    2.5114   -8.4473    1.5116 H   0  0  0  0  0  0  0  0  0  0  0  0
   -0.0026   -8.4266    1.3547 H   0  0  0  0  0  0  0  0  0  0  0  0
    0.5482   -8.6418    3.0282 H   0  0  0  0  0  0  0  0  0  0  0  0
   -0.4797   -6.0853    1.6760 H   0  0  0  0  0  0  0  0  0  0  0  0
   -1.3250   -7.0190    2.9087 H   0  0  0  0  0  0  0  0  0  0  0  0
   -0.1900   -4.9937    3.9355 H   0  0  0  0  0  0  0  0  0  0  0  0
    0.4084   -6.5059    4.6301 H   0  0  0  0  0  0  0  0  0  0  0  0
    2.1711   -4.9800    4.1715 H   0  0  0  0  0  0  0  0  0  0  0  0
    1.5111   -4.6701    2.5924 H   0  0  0  0  0  0  0  0  0  0  0  0
    4.4100   -6.3806    0.0902 H   0  0  0  0  0  0  0  0  0  0  0  0
    2.2839   -4.3172    0.8579 H   0  0  0  0  0  0  0  0  0  0  0  0
    2.2219   -5.5459   -0.4325 H   0  0  0  0  0  0  0  0  0  0  0  0
    3.5695   -4.0883    4.1504 H   0  0  0  0  0  0  0  0  0  0  0  0
  1  2  1  0
  1 31  1  0
  1 32  1  0
  1 33  1  0
  2 21  1  0
  2  3  1  0
  2 68  1  1
  3  4  1  0
  3 34  1  0
  3 35  1  0
  5  4  1  1
  4 36  1  0
  4 37  1  0
  5 14  1  0
  5 19  1  0
  5  6  1  0
  6 12  2  0
  6  7  1  0
  7 30  1  0
  7  8  2  0
  8  9  1  0
  8 38  1  0
  9 10  2  0
  9 39  1  0
 10 11  1  0
 10 12  1  0
 11 40  1  0
 12 13  1  0
 13 14  1  0
 14 15  1  0
 14 41  1  1
 15 16  1  0
 15 17  1  0
 15 18  1  0
 16 42  1  0
 16 43  1  0
 16 44  1  0
 17 45  1  0
 17 46  1  0
 17 47  1  0
 19 18  1  6
 18 48  1  0
 18 49  1  0
 19 29  1  0
 19 20  1  0
 20 21  1  0
 20 50  1  0
 20 51  1  0
 21 22  1  0
 21 52  1  1
 22 23  1  0
 22 29  1  0
 22 53  1  6
 23 28  1  0
 23 24  1  0
 23 54  1  0
 24 25  1  0
 24 55  1  0
 24 56  1  0
 25 26  1  0
 25 57  1  0
 25 58  1  0
 26 27  1  0
 26 59  1  0
 26 60  1  0
 27 28  1  0
 27 61  1  0
 27 62  1  0
 28 63  1  0
 28 64  1  0
 29 30  1  0
 29 65  1  6
 30 66  1  0
 30 67  1  0
M  CHG  1   2   1
M  END
>  <i_m_ct_stereo_status>  (248) 
1

>  <s_m_source_file>  (248) 
/var/tmp/pbs.5076255.sched01/tmp9n4xeji_/82rcfztp6i.sdf

>  <i_m_source_file_index>  (248) 
25

>  <i_lp_mmshare_version>  (248) 
48012

>  <i_f3d_flags>  (248) 
0

>  <s_epik_input>  (248) 
W0NIMl0xW0NIMl1bQ0gyXVtDSDJdW0NIMl1bQ0hdMVtDQEhdKFtDQEhdKFtDSDJdMilOKFtDSDNdKVtDSDJdW0NIMl0zKVtDQEhdKFtDQEBdMjRbQ0BdMzU2KVtDSDJdYzdjNWMoYyhbT0hdKVtjSF1bY0hdNylPW0NAQEhdNkMoW0NIM10pKFtDSDNdKVtDSDJdNA==

>  <s_epik_cmdline>  (248) 
J2VwaWtfcHl0aG9uJywgJy1waHQnLCAnMi4wJywgJy1waCcsICc3LjAnLCAnLXRuJywgJzgnLCAnLW1hJywgJzIwMCcsICctaW1hZScsICc8aW5maWxlLm1hZT4nLCAnLW9tYWUnLCAnPG91dGZpbGUubWFlPic=

>  <r_lp_tautomer_probability>  (248) 
1

>  <r_epik_Ionization_Penalty>  (248) 
0.00374564

>  <r_epik_Ionization_Penalty_Charging>  (248) 
0.00130401

>  <r_epik_Ionization_Penalty_Neutral>  (248) 
0.00244164

>  <r_epik_State_Penalty>  (248) 
-0

>  <r_epik_Charging_Adjusted_Penalty>  (248) 
0.00130401

>  <i_epik_Tot_Q>  (248) 
1

>  <i_epik_Tot_abs_Q>  (248) 
1

>  <s_lp_Force_Field>  (248) 
OPLS3e

>  <r_lp_Energy>  (248) 
122.929

>  <b_lp_Chiralities_Consistent>  (248) 
1

>  <s_lp_Variant>  (248) 
75:0-1

>  <s_i_glide_gridfile>  (248) 
pfpi4k_grid

>  <i_i_glide_lignum>  (248) 
25

>  <i_i_glide_rotatable_bonds>  (248) 
2

>  <r_i_docking_score>  (248) 
-2.89608

>  <r_i_glide_ligand_efficiency>  (248) 
-0.0965359

>  <r_i_glide_ligand_efficiency_sa>  (248) 
-0.299959

>  <r_i_glide_ligand_efficiency_ln>  (248) 
-0.65802

>  <r_i_glide_gscore>  (248) 
-2.89608

>  <r_i_glide_lipo>  (248) 
-0.873088

>  <r_i_glide_hbond>  (248) 
-0.0256818

>  <r_i_glide_metal>  (248) 
-0

>  <r_i_glide_rewards>  (248) 
-0.623208

>  <r_i_glide_evdw>  (248) 
-23.5031

>  <r_i_glide_ecoul>  (248) 
-2.11226

>  <r_i_glide_erotb>  (248) 
0.117896

>  <r_i_glide_esite>  (248) 
0

>  <r_i_glide_emodel>  (248) 
-24.5476

>  <r_i_glide_energy>  (248) 
-25.6153

>  <r_i_glide_einternal>  (248) 
8.77889

>  <r_i_glide_intrahb_reward>  (248) 
-0

>  <i_i_glide_confnum>  (248) 
4

>  <i_i_glide_posenum>  (248) 
11

>  <r_i_glide_eff_state_penalty>  (248) 
0

>  <ligand_id>  (248) 
75

>  <original_smiles>  (248) 
CN1CCC23c4c5ccc(O)c4OC2C(C)(C)CC32CC1C(C1CCCCC1)C2C5

>  <smiles>  (248) 
[H]Oc1c([H])c([H])c2c3c1OC1([H])C34C([H])([H])C([H])([H])[N+]([H])(C([H])([H])[H])C3([H])C([H])([H])C4(C([H])([H])C1(C([H])([H])[H])C([H])([H])[H])C([H])(C2([H])[H])C3([H])C1([H])C([H])([H])C([H])([H])C([H])([H])C([H])([H])C1([H])[H]

$$$$
75:0:1
     RDKit          3D

 68 74  0  0  1  0  0  0  0  0999 V2000
    5.0598   -5.1803    2.4397 C   0  0  0  0  0  0  0  0  0  0  0  0
    4.0688   -4.0728    2.4604 N   0  0  1  0  0  0  0  0  0  0  0  0
    2.9052   -4.3855    3.3782 C   0  0  0  0  0  0  0  0  0  0  0  0
    1.8194   -3.2623    3.4762 C   0  0  0  0  0  0  0  0  0  0  0  0
    2.1181   -1.9337    4.2810 C   0  0  1  0  0  0  0  0  0  0  0  0
    1.0603   -0.9132    3.9462 C   0  0  0  0  0  0  0  0  0  0  0  0
    1.1048   -0.0190    2.8638 C   0  0  0  0  0  0  0  0  0  0  0  0
    0.0070    0.8367    2.6838 C   0  0  0  0  0  0  0  0  0  0  0  0
   -1.0253    0.8235    3.6536 C   0  0  0  0  0  0  0  0  0  0  0  0
   -0.9649   -0.0161    4.7949 C   0  0  0  0  0  0  0  0  0  0  0  0
   -1.9215    0.0547    5.7611 O   0  0  0  0  0  0  0  0  0  0  0  0
    0.1321   -0.9129    4.9515 C   0  0  0  0  0  0  0  0  0  0  0  0
    0.4832   -1.6849    6.0145 O   0  0  0  0  0  0  0  0  0  0  0  0
    1.8628   -2.0641    5.8121 C   0  0  2  0  0  0  0  0  0  0  0  0
    2.8721   -1.0896    6.5015 C   0  0  0  0  0  0  0  0  0  0  0  0
    2.2036   -0.0568    7.4336 C   0  0  0  0  0  0  0  0  0  0  0  0
    3.8724   -1.8846    7.3667 C   0  0  0  0  0  0  0  0  0  0  0  0
    3.5806   -0.3494    5.3349 C   0  0  0  0  0  0  0  0  0  0  0  0
    3.5032   -1.2559    4.0968 C   0  0  1  0  0  0  0  0  0  0  0  0
    4.6707   -2.2710    4.1189 C   0  0  0  0  0  0  0  0  0  0  0  0
    4.7245   -2.7427    2.6836 C   0  0  1  0  0  0  0  0  0  0  0  0
    4.6541   -1.4139    1.8835 C   0  0  1  0  0  0  0  0  0  0  0  0
    4.6138   -1.4622    0.3174 C   0  0  0  0  0  0  0  0  0  0  0  0
    3.5445   -2.4417   -0.2613 C   0  0  0  0  0  0  0  0  0  0  0  0
    3.5309   -2.4754   -1.7725 C   0  0  0  0  0  0  0  0  0  0  0  0
    4.9075   -2.8967   -2.2938 C   0  0  0  0  0  0  0  0  0  0  0  0
    5.9920   -1.9243   -1.7912 C   0  0  0  0  0  0  0  0  0  0  0  0
    6.0122   -1.8188   -0.2524 C   0  0  0  0  0  0  0  0  0  0  0  0
    3.6490   -0.5057    2.7041 C   0  0  1  0  0  0  0  0  0  0  0  0
    2.2992   -0.2087    1.9712 C   0  0  0  0  0  0  0  0  0  0  0  0
    5.5265   -5.3051    3.4252 H   0  0  0  0  0  0  0  0  0  0  0  0
    5.8488   -4.9863    1.7030 H   0  0  0  0  0  0  0  0  0  0  0  0
    4.5835   -6.1316    2.1683 H   0  0  0  0  0  0  0  0  0  0  0  0
    2.4263   -5.2705    2.9571 H   0  0  0  0  0  0  0  0  0  0  0  0
    3.2454   -4.7006    4.3674 H   0  0  0  0  0  0  0  0  0  0  0  0
    1.5242   -3.0175    2.4514 H   0  0  0  0  0  0  0  0  0  0  0  0
    0.9340   -3.7250    3.9102 H   0  0  0  0  0  0  0  0  0  0  0  0
   -0.0361    1.4846    1.8110 H   0  0  0  0  0  0  0  0  0  0  0  0
   -1.8518    1.5084    3.5144 H   0  0  0  0  0  0  0  0  0  0  0  0
   -2.5595    0.7120    5.5163 H   0  0  0  0  0  0  0  0  0  0  0  0
    2.0022   -3.0869    6.1644 H   0  0  0  0  0  0  0  0  0  0  0  0
    2.9499    0.5865    7.9003 H   0  0  0  0  0  0  0  0  0  0  0  0
    1.6518   -0.5434    8.2360 H   0  0  0  0  0  0  0  0  0  0  0  0
    1.5090    0.5955    6.9046 H   0  0  0  0  0  0  0  0  0  0  0  0
    4.6723   -1.2468    7.7409 H   0  0  0  0  0  0  0  0  0  0  0  0
    4.3367   -2.7128    6.8428 H   0  0  0  0  0  0  0  0  0  0  0  0
    3.3719   -2.3190    8.2307 H   0  0  0  0  0  0  0  0  0  0  0  0
    3.0363    0.5692    5.1017 H   0  0  0  0  0  0  0  0  0  0  0  0
    4.6043   -0.0518    5.5737 H   0  0  0  0  0  0  0  0  0  0  0  0
    5.6117   -1.7511    4.3091 H   0  0  0  0  0  0  0  0  0  0  0  0
    4.6121   -3.0907    4.8400 H   0  0  0  0  0  0  0  0  0  0  0  0
    3.7446   -2.6537    2.2701 H   0  0  0  0  0  0  0  0  0  0  0  0
    5.6157   -0.9452    2.1091 H   0  0  0  0  0  0  0  0  0  0  0  0
    4.4121   -0.4447   -0.0242 H   0  0  0  0  0  0  0  0  0  0  0  0
    3.7861   -3.4696    0.0219 H   0  0  0  0  0  0  0  0  0  0  0  0
    2.5237   -2.2145    0.0077 H   0  0  0  0  0  0  0  0  0  0  0  0
    2.7766   -3.2115   -2.0513 H   0  0  0  0  0  0  0  0  0  0  0  0
    3.2181   -1.5036   -2.1628 H   0  0  0  0  0  0  0  0  0  0  0  0
    5.1295   -3.9096   -1.9371 H   0  0  0  0  0  0  0  0  0  0  0  0
    4.8773   -2.9298   -3.3864 H   0  0  0  0  0  0  0  0  0  0  0  0
    6.9657   -2.2614   -2.1559 H   0  0  0  0  0  0  0  0  0  0  0  0
    5.8033   -0.9365   -2.2140 H   0  0  0  0  0  0  0  0  0  0  0  0
    6.7711   -1.0910    0.0556 H   0  0  0  0  0  0  0  0  0  0  0  0
    6.3323   -2.7740    0.1638 H   0  0  0  0  0  0  0  0  0  0  0  0
    4.1514    0.4444    2.8926 H   0  0  0  0  0  0  0  0  0  0  0  0
    1.9386   -1.0568    1.4152 H   0  0  0  0  0  0  0  0  0  0  0  0
    2.4236    0.6401    1.2857 H   0  0  0  0  0  0  0  0  0  0  0  0
    3.6995   -4.0477    1.5187 H   0  0  0  0  0  0  0  0  0  0  0  0
  1  2  1  0
  1 31  1  0
  1 32  1  0
  1 33  1  0
  2 21  1  0
  2  3  1  0
  2 68  1  6
  3  4  1  0
  3 34  1  0
  3 35  1  0
  5  4  1  6
  4 36  1  0
  4 37  1  0
  5 14  1  0
  5 19  1  0
  5  6  1  0
  6 12  2  0
  6  7  1  0
  7 30  1  0
  7  8  2  0
  8  9  1  0
  8 38  1  0
  9 10  2  0
  9 39  1  0
 10 11  1  0
 10 12  1  0
 11 40  1  0
 12 13  1  0
 13 14  1  0
 14 15  1  0
 14 41  1  1
 15 16  1  0
 15 17  1  0
 15 18  1  0
 16 42  1  0
 16 43  1  0
 16 44  1  0
 17 45  1  0
 17 46  1  0
 17 47  1  0
 19 18  1  1
 18 48  1  0
 18 49  1  0
 19 29  1  0
 19 20  1  0
 20 21  1  0
 20 50  1  0
 20 51  1  0
 21 22  1  0
 21 52  1  1
 22 23  1  0
 22 29  1  0
 22 53  1  6
 23 28  1  0
 23 24  1  0
 23 54  1  0
 24 25  1  0
 24 55  1  0
 24 56  1  0
 25 26  1  0
 25 57  1  0
 25 58  1  0
 26 27  1  0
 26 59  1  0
 26 60  1  0
 27 28  1  0
 27 61  1  0
 27 62  1  0
 28 63  1  0
 28 64  1  0
 29 30  1  0
 29 65  1  1
 30 66  1  0
 30 67  1  0
M  CHG  1   2   1
M  END
>  <i_m_ct_stereo_status>  (249) 
1

>  <s_m_source_file>  (249) 
/var/tmp/pbs.5076255.sched01/tmp9n4xeji_/82rcfztp6i.sdf

>  <i_m_source_file_index>  (249) 
25

>  <i_lp_mmshare_version>  (249) 
48012

>  <i_f3d_flags>  (249) 
0

>  <s_epik_input>  (249) 
W0NIMl0xW0NIMl1bQ0gyXVtDSDJdW0NIMl1bQ0hdMVtDQEhdKFtDQEhdKFtDSDJdMilOKFtDSDNdKVtDSDJdW0NIMl0zKVtDQEhdKFtDQEBdMjRbQ0BdMzU2KVtDSDJdYzdjNWMoYyhbT0hdKVtjSF1bY0hdNylPW0NAQEhdNkMoW0NIM10pKFtDSDNdKVtDSDJdNA==

>  <s_epik_cmdline>  (249) 
J2VwaWtfcHl0aG9uJywgJy1waHQnLCAnMi4wJywgJy1waCcsICc3LjAnLCAnLXRuJywgJzgnLCAnLW1hJywgJzIwMCcsICctaW1hZScsICc8aW5maWxlLm1hZT4nLCAnLW9tYWUnLCAnPG91dGZpbGUubWFlPic=

>  <r_lp_tautomer_probability>  (249) 
1

>  <r_epik_Ionization_Penalty>  (249) 
0.00374564

>  <r_epik_Ionization_Penalty_Charging>  (249) 
0.00130401

>  <r_epik_Ionization_Penalty_Neutral>  (249) 
0.00244164

>  <r_epik_State_Penalty>  (249) 
-0

>  <r_epik_Charging_Adjusted_Penalty>  (249) 
0.00130401

>  <i_epik_Tot_Q>  (249) 
1

>  <i_epik_Tot_abs_Q>  (249) 
1

>  <s_lp_Force_Field>  (249) 
OPLS3e

>  <r_lp_Energy>  (249) 
122.929

>  <b_lp_Chiralities_Consistent>  (249) 
1

>  <s_lp_Variant>  (249) 
75:0-1

>  <s_i_glide_gridfile>  (249) 
pfpi4k_grid

>  <i_i_glide_lignum>  (249) 
25

>  <i_i_glide_rotatable_bonds>  (249) 
2

>  <r_i_docking_score>  (249) 
-2.53113

>  <r_i_glide_ligand_efficiency>  (249) 
-0.0843709

>  <r_i_glide_ligand_efficiency_sa>  (249) 
-0.26216

>  <r_i_glide_ligand_efficiency_ln>  (249) 
-0.5751

>  <r_i_glide_gscore>  (249) 
-2.53113

>  <r_i_glide_lipo>  (249) 
-0.252563

>  <r_i_glide_hbond>  (249) 
0

>  <r_i_glide_metal>  (249) 
-0

>  <r_i_glide_rewards>  (249) 
-0.623208

>  <r_i_glide_evdw>  (249) 
-22.3568

>  <r_i_glide_ecoul>  (249) 
-4.36943

>  <r_i_glide_erotb>  (249) 
0.117896

>  <r_i_glide_esite>  (249) 
0

>  <r_i_glide_emodel>  (249) 
-27.132

>  <r_i_glide_energy>  (249) 
-26.7262

>  <r_i_glide_einternal>  (249) 
6.29996

>  <r_i_glide_intrahb_reward>  (249) 
-0

>  <i_i_glide_confnum>  (249) 
4

>  <i_i_glide_posenum>  (249) 
25

>  <r_i_glide_eff_state_penalty>  (249) 
0

>  <ligand_id>  (249) 
75

>  <original_smiles>  (249) 
CN1CCC23c4c5ccc(O)c4OC2C(C)(C)CC32CC1C(C1CCCCC1)C2C5

>  <smiles>  (249) 
[H]Oc1c([H])c([H])c2c3c1OC1([H])C34C([H])([H])C([H])([H])[N+]([H])(C([H])([H])[H])C3([H])C([H])([H])C4(C([H])([H])C1(C([H])([H])[H])C([H])([H])[H])C([H])(C2([H])[H])C3([H])C1([H])C([H])([H])C([H])([H])C([H])([H])C([H])([H])C1([H])[H]

$$$$
75:0:2
     RDKit          3D

 68 74  0  0  1  0  0  0  0  0999 V2000
    4.6967   -5.7822    2.6339 C   0  0  0  0  0  0  0  0  0  0  0  0
    3.8455   -4.5722    2.5028 N   0  0  1  0  0  0  0  0  0  0  0  0
    2.5990   -4.6667    3.3582 C   0  0  0  0  0  0  0  0  0  0  0  0
    1.6557   -3.4233    3.3121 C   0  0  0  0  0  0  0  0  0  0  0  0
    2.0637   -2.0912    4.0498 C   0  0  1  0  0  0  0  0  0  0  0  0
    1.1501   -0.9826    3.5793 C   0  0  0  0  0  0  0  0  0  0  0  0
    1.3562   -0.1820    2.4618 C   0  0  0  0  0  0  0  0  0  0  0  0
    0.3826    0.7746    2.1136 C   0  0  0  0  0  0  0  0  0  0  0  0
   -0.7031    0.9617    2.9971 C   0  0  0  0  0  0  0  0  0  0  0  0
   -0.7973    0.2126    4.2035 C   0  0  0  0  0  0  0  0  0  0  0  0
   -1.8018    0.4678    5.0817 O   0  0  0  0  0  0  0  0  0  0  0  0
    0.1593   -0.7870    4.5170 C   0  0  0  0  0  0  0  0  0  0  0  0
    0.3718   -1.5051    5.6480 O   0  0  0  0  0  0  0  0  0  0  0  0
    1.7060   -2.0570    5.5564 C   0  0  2  0  0  0  0  0  0  0  0  0
    2.7836   -1.1485    6.2349 C   0  0  0  0  0  0  0  0  0  0  0  0
    2.1897    0.0280    7.0395 C   0  0  0  0  0  0  0  0  0  0  0  0
    3.6263   -1.9812    7.2211 C   0  0  0  0  0  0  0  0  0  0  0  0
    3.6440   -0.5918    5.0711 C   0  0  0  0  0  0  0  0  0  0  0  0
    3.5288   -1.5876    3.8977 C   0  0  1  0  0  0  0  0  0  0  0  0
    4.5682   -2.7230    4.0620 C   0  0  0  0  0  0  0  0  0  0  0  0
    4.6495   -3.3102    2.6631 C   0  0  1  0  0  0  0  0  0  0  0  0
    4.7790   -2.0393    1.7709 C   0  0  1  0  0  0  0  0  0  0  0  0
    4.8406   -2.1927    0.2174 C   0  0  0  0  0  0  0  0  0  0  0  0
    5.0348   -0.7940   -0.4542 C   0  0  0  0  0  0  0  0  0  0  0  0
    4.9560   -0.8810   -1.9827 C   0  0  0  0  0  0  0  0  0  0  0  0
    3.6831   -1.6177   -2.4513 C   0  0  0  0  0  0  0  0  0  0  0  0
    3.6346   -3.0514   -1.8787 C   0  0  0  0  0  0  0  0  0  0  0  0
    3.6409   -3.0194   -0.3627 C   0  0  0  0  0  0  0  0  0  0  0  0
    3.8362   -0.9624    2.4633 C   0  0  1  0  0  0  0  0  0  0  0  0
    2.5446   -0.5622    1.6575 C   0  0  0  0  0  0  0  0  0  0  0  0
    5.0786   -5.8680    3.6562 H   0  0  0  0  0  0  0  0  0  0  0  0
    5.5507   -5.7445    1.9495 H   0  0  0  0  0  0  0  0  0  0  0  0
    4.1328   -6.6930    2.4095 H   0  0  0  0  0  0  0  0  0  0  0  0
    2.0481   -5.5299    2.9801 H   0  0  0  0  0  0  0  0  0  0  0  0
    2.8548   -4.9441    4.3842 H   0  0  0  0  0  0  0  0  0  0  0  0
    1.4585   -3.2297    2.2573 H   0  0  0  0  0  0  0  0  0  0  0  0
    0.7005   -3.7455    3.7092 H   0  0  0  0  0  0  0  0  0  0  0  0
    0.4888    1.3387    1.1827 H   0  0  0  0  0  0  0  0  0  0  0  0
   -1.4161    1.7288    2.7359 H   0  0  0  0  0  0  0  0  0  0  0  0
   -2.4058    1.0839    4.6990 H   0  0  0  0  0  0  0  0  0  0  0  0
    1.6912   -3.0507    5.9931 H   0  0  0  0  0  0  0  0  0  0  0  0
    2.9780    0.6183    7.5076 H   0  0  0  0  0  0  0  0  0  0  0  0
    1.5355   -0.3220    7.8369 H   0  0  0  0  0  0  0  0  0  0  0  0
    1.6107    0.7116    6.4177 H   0  0  0  0  0  0  0  0  0  0  0  0
    4.4734   -1.4123    7.6006 H   0  0  0  0  0  0  0  0  0  0  0  0
    4.0177   -2.8957    6.7898 H   0  0  0  0  0  0  0  0  0  0  0  0
    3.0293   -2.2838    8.0800 H   0  0  0  0  0  0  0  0  0  0  0  0
    3.2251    0.3571    4.7276 H   0  0  0  0  0  0  0  0  0  0  0  0
    4.6794   -0.3892    5.3527 H   0  0  0  0  0  0  0  0  0  0  0  0
    5.5503   -2.2988    4.2718 H   0  0  0  0  0  0  0  0  0  0  0  0
    4.3693   -3.4683    4.8335 H   0  0  0  0  0  0  0  0  0  0  0  0
    3.7192   -3.1419    2.1823 H   0  0  0  0  0  0  0  0  0  0  0  0
    5.7911   -1.6978    2.0182 H   0  0  0  0  0  0  0  0  0  0  0  0
    5.7599   -2.7498   -0.0086 H   0  0  0  0  0  0  0  0  0  0  0  0
    4.2566   -0.0866   -0.1970 H   0  0  0  0  0  0  0  0  0  0  0  0
    5.9785   -0.3148   -0.1325 H   0  0  0  0  0  0  0  0  0  0  0  0
    4.9416    0.1355   -2.3892 H   0  0  0  0  0  0  0  0  0  0  0  0
    5.8408   -1.3979   -2.3564 H   0  0  0  0  0  0  0  0  0  0  0  0
    2.7885   -1.0494   -2.1644 H   0  0  0  0  0  0  0  0  0  0  0  0
    3.6673   -1.6806   -3.5431 H   0  0  0  0  0  0  0  0  0  0  0  0
    2.6777   -3.5126   -2.1527 H   0  0  0  0  0  0  0  0  0  0  0  0
    4.4538   -3.6770   -2.2607 H   0  0  0  0  0  0  0  0  0  0  0  0
    3.6856   -4.0594   -0.0240 H   0  0  0  0  0  0  0  0  0  0  0  0
    2.6628   -2.6246   -0.1404 H   0  0  0  0  0  0  0  0  0  0  0  0
    4.4406   -0.0645    2.6181 H   0  0  0  0  0  0  0  0  0  0  0  0
    2.0905   -1.4038    1.1710 H   0  0  0  0  0  0  0  0  0  0  0  0
    2.7006    0.2849    0.9822 H   0  0  0  0  0  0  0  0  0  0  0  0
    3.5378   -4.5888    1.5305 H   0  0  0  0  0  0  0  0  0  0  0  0
  1  2  1  0
  1 31  1  0
  1 32  1  0
  1 33  1  0
  2 21  1  0
  2  3  1  0
  2 68  1  6
  3  4  1  0
  3 34  1  0
  3 35  1  0
  5  4  1  6
  4 36  1  0
  4 37  1  0
  5 14  1  0
  5 19  1  0
  5  6  1  0
  6 12  2  0
  6  7  1  0
  7 30  1  0
  7  8  2  0
  8  9  1  0
  8 38  1  0
  9 10  2  0
  9 39  1  0
 10 11  1  0
 10 12  1  0
 11 40  1  0
 12 13  1  0
 13 14  1  0
 14 15  1  0
 14 41  1  1
 15 16  1  0
 15 17  1  0
 15 18  1  0
 16 42  1  0
 16 43  1  0
 16 44  1  0
 17 45  1  0
 17 46  1  0
 17 47  1  0
 19 18  1  1
 18 48  1  0
 18 49  1  0
 19 29  1  0
 19 20  1  0
 20 21  1  0
 20 50  1  0
 20 51  1  0
 21 22  1  0
 21 52  1  1
 22 23  1  0
 22 29  1  0
 22 53  1  1
 23 28  1  0
 23 24  1  0
 23 54  1  0
 24 25  1  0
 24 55  1  0
 24 56  1  0
 25 26  1  0
 25 57  1  0
 25 58  1  0
 26 27  1  0
 26 59  1  0
 26 60  1  0
 27 28  1  0
 27 61  1  0
 27 62  1  0
 28 63  1  0
 28 64  1  0
 29 30  1  0
 29 65  1  1
 30 66  1  0
 30 67  1  0
M  CHG  1   2   1
M  END
>  <i_m_ct_stereo_status>  (250) 
1

>  <s_m_source_file>  (250) 
/var/tmp/pbs.5076255.sched01/tmp9n4xeji_/82rcfztp6i.sdf

>  <i_m_source_file_index>  (250) 
25

>  <i_lp_mmshare_version>  (250) 
48012

>  <i_f3d_flags>  (250) 
0

>  <s_epik_input>  (250) 
W0NIMl0xW0NIMl1bQ0gyXVtDSDJdW0NIMl1bQ0hdMVtDQEhdKFtDQEhdKFtDSDJdMilOKFtDSDNdKVtDSDJdW0NIMl0zKVtDQEhdKFtDQEBdMjRbQ0BdMzU2KVtDSDJdYzdjNWMoYyhbT0hdKVtjSF1bY0hdNylPW0NAQEhdNkMoW0NIM10pKFtDSDNdKVtDSDJdNA==

>  <s_epik_cmdline>  (250) 
J2VwaWtfcHl0aG9uJywgJy1waHQnLCAnMi4wJywgJy1waCcsICc3LjAnLCAnLXRuJywgJzgnLCAnLW1hJywgJzIwMCcsICctaW1hZScsICc8aW5maWxlLm1hZT4nLCAnLW9tYWUnLCAnPG91dGZpbGUubWFlPic=

>  <r_lp_tautomer_probability>  (250) 
1

>  <r_epik_Ionization_Penalty>  (250) 
0.00374564

>  <r_epik_Ionization_Penalty_Charging>  (250) 
0.00130401

>  <r_epik_Ionization_Penalty_Neutral>  (250) 
0.00244164

>  <r_epik_State_Penalty>  (250) 
-0

>  <r_epik_Charging_Adjusted_Penalty>  (250) 
0.00130401

>  <i_epik_Tot_Q>  (250) 
1

>  <i_epik_Tot_abs_Q>  (250) 
1

>  <s_lp_Force_Field>  (250) 
OPLS3e

>  <r_lp_Energy>  (250) 
122.929

>  <b_lp_Chiralities_Consistent>  (250) 
1

>  <s_lp_Variant>  (250) 
75:0-1

>  <s_i_glide_gridfile>  (250) 
pfpi4k_grid

>  <i_i_glide_lignum>  (250) 
25

>  <i_i_glide_rotatable_bonds>  (250) 
2

>  <r_i_docking_score>  (250) 
-2.38013

>  <r_i_glide_ligand_efficiency>  (250) 
-0.0793377

>  <r_i_glide_ligand_efficiency_sa>  (250) 
-0.246521

>  <r_i_glide_ligand_efficiency_ln>  (250) 
-0.540791

>  <r_i_glide_gscore>  (250) 
-2.38013

>  <r_i_glide_lipo>  (250) 
-0.126707

>  <r_i_glide_hbond>  (250) 
0

>  <r_i_glide_metal>  (250) 
-0

>  <r_i_glide_rewards>  (250) 
-0.623208

>  <r_i_glide_evdw>  (250) 
-23.1257

>  <r_i_glide_ecoul>  (250) 
-3.9455

>  <r_i_glide_erotb>  (250) 
0.117896

>  <r_i_glide_esite>  (250) 
0

>  <r_i_glide_emodel>  (250) 
-25.3067

>  <r_i_glide_energy>  (250) 
-27.0712

>  <r_i_glide_einternal>  (250) 
8.23999

>  <r_i_glide_intrahb_reward>  (250) 
-0

>  <i_i_glide_confnum>  (250) 
4

>  <i_i_glide_posenum>  (250) 
1

>  <r_i_glide_eff_state_penalty>  (250) 
0

>  <ligand_id>  (250) 
75

>  <original_smiles>  (250) 
CN1CCC23c4c5ccc(O)c4OC2C(C)(C)CC32CC1C(C1CCCCC1)C2C5

>  <smiles>  (250) 
[H]Oc1c([H])c([H])c2c3c1OC1([H])C34C([H])([H])C([H])([H])[N+]([H])(C([H])([H])[H])C3([H])C([H])([H])C4(C([H])([H])C1(C([H])([H])[H])C([H])([H])[H])C([H])(C2([H])[H])C3([H])C1([H])C([H])([H])C([H])([H])C([H])([H])C([H])([H])C1([H])[H]

$$$$
77:0:0
     RDKit          3D

 50 54  0  0  1  0  0  0  0  0999 V2000
    2.3552   -7.6455    1.5649 C   0  0  0  0  0  0  0  0  0  0  0  0
    1.4108   -6.4522    1.4374 C   0  0  0  0  0  0  0  0  0  0  0  0
    0.2155   -6.6091    1.2202 O   0  0  0  0  0  0  0  0  0  0  0  0
    1.9564   -5.2165    1.5986 O   0  0  0  0  0  0  0  0  0  0  0  0
    3.3493   -4.9780    1.7231 C   0  0  0  0  0  0  0  0  0  0  0  0
    3.7655   -3.7862    0.8447 C   0  0  1  0  0  0  0  0  0  0  0  0
    3.1651   -2.4747    1.4519 C   0  0  2  0  0  0  0  0  0  0  0  0
    3.2803   -1.3952    0.5108 O   0  0  0  0  0  0  0  0  0  0  0  0
    4.5242   -1.3465   -0.2115 C   0  0  1  0  0  0  0  0  0  0  0  0
    5.6084   -2.1419    0.6271 C   0  0  1  0  0  0  0  0  0  0  0  0
    5.4694   -1.6331    2.0897 C   0  0  1  0  0  0  0  0  0  0  0  0
    5.7208   -0.2504    2.1628 O   0  0  0  0  0  0  0  0  0  0  0  0
    4.0519   -2.0015    2.6255 C   0  0  1  0  0  0  0  0  0  0  0  0
    3.4170   -0.9777    3.3533 O   0  0  0  0  0  0  0  0  0  0  0  0
    5.2864   -3.6523    0.6063 C   0  0  1  0  0  0  0  0  0  0  0  0
    6.2425   -4.4351    1.5344 C   0  0  0  0  0  0  0  0  0  0  0  0
    5.1090   -4.3355   -0.7550 C   0  0  2  0  0  0  0  0  0  0  0  0
    5.8975   -3.7830   -1.9472 C   0  0  0  0  0  0  0  0  0  0  0  0
    5.5232   -2.3426   -2.3313 C   0  0  0  0  0  0  0  0  0  0  0  0
    4.2189   -1.8243   -1.6728 C   0  0  2  0  0  0  0  0  0  0  0  0
    3.6819   -0.6637   -2.5427 C   0  0  0  0  0  0  0  0  0  0  0  0
    3.1522   -2.9490   -1.6251 C   0  0  1  0  0  0  0  0  0  0  0  0
    2.9451   -3.4467   -2.9353 O   0  0  0  0  0  0  0  0  0  0  0  0
    3.6139   -4.0469   -0.6758 C   0  0  2  0  0  0  0  0  0  0  0  0
    3.1536   -7.5959    0.8270 H   0  0  0  0  0  0  0  0  0  0  0  0
    1.8237   -8.5894    1.4200 H   0  0  0  0  0  0  0  0  0  0  0  0
    2.8033   -7.6631    2.5548 H   0  0  0  0  0  0  0  0  0  0  0  0
    3.5912   -4.7987    2.7778 H   0  0  0  0  0  0  0  0  0  0  0  0
    3.9379   -5.8305    1.3955 H   0  0  0  0  0  0  0  0  0  0  0  0
    2.1281   -2.5998    1.7586 H   0  0  0  0  0  0  0  0  0  0  0  0
    4.8262   -0.2985   -0.2582 H   0  0  0  0  0  0  0  0  0  0  0  0
    6.6142   -1.9622    0.2419 H   0  0  0  0  0  0  0  0  0  0  0  0
    6.2090   -2.0985    2.7369 H   0  0  0  0  0  0  0  0  0  0  0  0
    6.6652   -0.1087    2.0058 H   0  0  0  0  0  0  0  0  0  0  0  0
    4.1714   -2.8230    3.3334 H   0  0  0  0  0  0  0  0  0  0  0  0
    3.3043   -0.2434    2.7517 H   0  0  0  0  0  0  0  0  0  0  0  0
    7.2855   -4.2012    1.3238 H   0  0  0  0  0  0  0  0  0  0  0  0
    6.1350   -5.5140    1.4111 H   0  0  0  0  0  0  0  0  0  0  0  0
    6.0496   -4.2479    2.5885 H   0  0  0  0  0  0  0  0  0  0  0  0
    5.2484   -5.4147   -0.6612 H   0  0  0  0  0  0  0  0  0  0  0  0
    6.9707   -3.8451   -1.7628 H   0  0  0  0  0  0  0  0  0  0  0  0
    5.7017   -4.3956   -2.8258 H   0  0  0  0  0  0  0  0  0  0  0  0
    6.3437   -1.6711   -2.0838 H   0  0  0  0  0  0  0  0  0  0  0  0
    5.4168   -2.3088   -3.4174 H   0  0  0  0  0  0  0  0  0  0  0  0
    3.4999   -0.9823   -3.5684 H   0  0  0  0  0  0  0  0  0  0  0  0
    4.3868    0.1724   -2.5806 H   0  0  0  0  0  0  0  0  0  0  0  0
    2.7136   -0.3153   -2.1878 H   0  0  0  0  0  0  0  0  0  0  0  0
    2.1974   -2.5714   -1.2830 H   0  0  0  0  0  0  0  0  0  0  0  0
    2.7486   -4.3717   -2.8862 H   0  0  0  0  0  0  0  0  0  0  0  0
    3.0331   -4.9565   -0.7497 H   0  0  0  0  0  0  0  0  0  0  0  0
  1  2  1  0
  1 25  1  0
  1 26  1  0
  1 27  1  0
  2  3  2  0
  2  4  1  0
  4  5  1  0
  6  5  1  1
  5 28  1  0
  5 29  1  0
  6 15  1  0
  6 24  1  0
  6  7  1  0
  7 13  1  0
  7  8  1  0
  7 30  1  1
  8  9  1  0
  9 20  1  0
  9 10  1  0
  9 31  1  6
 10 11  1  0
 10 15  1  0
 10 32  1  6
 11 12  1  0
 11 13  1  0
 11 33  1  1
 12 34  1  0
 13 14  1  0
 13 35  1  1
 14 36  1  0
 15 16  1  1
 15 17  1  0
 16 37  1  0
 16 38  1  0
 16 39  1  0
 17 24  1  0
 17 18  1  0
 17 40  1  1
 18 19  1  0
 18 41  1  0
 18 42  1  0
 19 20  1  0
 19 43  1  0
 19 44  1  0
 20 21  1  6
 20 22  1  0
 21 45  1  0
 21 46  1  0
 21 47  1  0
 22 23  1  0
 22 24  1  0
 22 48  1  1
 23 49  1  0
 24 50  1  1
M  END
>  <i_m_ct_stereo_status>  (251) 
1

>  <s_m_source_file>  (251) 
/var/tmp/pbs.5076255.sched01/tmp9n4xeji_/82rcfztp6i.sdf

>  <i_m_source_file_index>  (251) 
27

>  <i_lp_mmshare_version>  (251) 
48012

>  <i_f3d_flags>  (251) 
0

>  <s_epik_input>  (251) 
W0NIM11DKD1PKU9bQ0gyXVtDQEBdMTJbQ0BASF0zT1tDQEhdNFtDQEBIXShbQ0BASF0oW09IXSlbQ0BIXTNbT0hdKVtDQF0xKFtDSDNdKVtDQEhdNVtDQEBIXTJbQ0BIXShbT0hdKVtDQF00KFtDSDNdKVtDSDJdW0NIMl01

>  <s_epik_cmdline>  (251) 
J2VwaWtfcHl0aG9uJywgJy1waHQnLCAnMi4wJywgJy1waCcsICc3LjAnLCAnLXRuJywgJzgnLCAnLW1hJywgJzIwMCcsICctaW1hZScsICc8aW5maWxlLm1hZT4nLCAnLW9tYWUnLCAnPG91dGZpbGUubWFlPic=

>  <r_lp_tautomer_probability>  (251) 
1

>  <r_epik_Ionization_Penalty>  (251) 
2.64767e-07

>  <r_epik_Ionization_Penalty_Charging>  (251) 
0

>  <r_epik_Ionization_Penalty_Neutral>  (251) 
2.64767e-07

>  <r_epik_State_Penalty>  (251) 
-0

>  <r_epik_Charging_Adjusted_Penalty>  (251) 
0

>  <i_epik_Tot_Q>  (251) 
0

>  <i_epik_Tot_abs_Q>  (251) 
0

>  <s_epik_Chemistry_Notes>  (251) 
This compound has an ester and may undergo hydrolysis at high or low pH.

>  <s_lp_Force_Field>  (251) 
OPLS3e

>  <r_lp_Energy>  (251) 
62.384

>  <b_lp_Chiralities_Consistent>  (251) 
1

>  <s_lp_Variant>  (251) 
77:0-1

>  <s_i_glide_gridfile>  (251) 
pfpi4k_grid

>  <i_i_glide_lignum>  (251) 
27

>  <i_i_glide_rotatable_bonds>  (251) 
6

>  <r_i_docking_score>  (251) 
-3.94819

>  <r_i_glide_ligand_efficiency>  (251) 
-0.164508

>  <r_i_glide_ligand_efficiency_sa>  (251) 
-0.474523

>  <r_i_glide_ligand_efficiency_ln>  (251) 
-0.944982

>  <r_i_glide_gscore>  (251) 
-3.94819

>  <r_i_glide_lipo>  (251) 
-0.469865

>  <r_i_glide_hbond>  (251) 
-0.465203

>  <r_i_glide_metal>  (251) 
-0

>  <r_i_glide_rewards>  (251) 
-1.10185

>  <r_i_glide_evdw>  (251) 
-18.3228

>  <r_i_glide_ecoul>  (251) 
-8.43194

>  <r_i_glide_erotb>  (251) 
0.330298

>  <r_i_glide_esite>  (251) 
-0.0606355

>  <r_i_glide_emodel>  (251) 
-27.6724

>  <r_i_glide_energy>  (251) 
-26.7548

>  <r_i_glide_einternal>  (251) 
8.16228

>  <r_i_glide_intrahb_reward>  (251) 
-0

>  <i_i_glide_confnum>  (251) 
3

>  <i_i_glide_posenum>  (251) 
2

>  <r_i_glide_eff_state_penalty>  (251) 
0

>  <ligand_id>  (251) 
77

>  <original_smiles>  (251) 
CC(=O)OCC12C3OC4C(C(O)C3O)C1(C)C1CCC4(C)C(O)C12

>  <smiles>  (251) 
[H]OC1([H])C([H])(O[H])C2([H])C3([H])OC1([H])C1(C([H])([H])OC(=O)C([H])([H])[H])C4([H])C([H])(O[H])C3(C([H])([H])[H])C([H])([H])C([H])([H])C4([H])C21C([H])([H])[H]

$$$$
77:0:1
     RDKit          3D

 50 54  0  0  1  0  0  0  0  0999 V2000
    2.3066   -7.2969    2.7666 C   0  0  0  0  0  0  0  0  0  0  0  0
    1.3170   -6.2670    2.1906 C   0  0  0  0  0  0  0  0  0  0  0  0
    0.1167   -6.4703    2.1938 O   0  0  0  0  0  0  0  0  0  0  0  0
    1.8617   -5.1237    1.6852 O   0  0  0  0  0  0  0  0  0  0  0  0
    3.2484   -4.8508    1.7031 C   0  0  0  0  0  0  0  0  0  0  0  0
    3.6162   -3.6656    0.8110 C   0  0  1  0  0  0  0  0  0  0  0  0
    2.9871   -2.3689    1.4012 C   0  0  2  0  0  0  0  0  0  0  0  0
    3.0575   -1.2972    0.4369 O   0  0  0  0  0  0  0  0  0  0  0  0
    4.2852   -1.2467   -0.3231 C   0  0  1  0  0  0  0  0  0  0  0  0
    5.4091   -1.9799    0.5237 C   0  0  1  0  0  0  0  0  0  0  0  0
    5.2713   -1.4434    1.9800 C   0  0  1  0  0  0  0  0  0  0  0  0
    5.4186   -0.0545    1.9669 O   0  0  0  0  0  0  0  0  0  0  0  0
    3.8813   -1.8460    2.5539 C   0  0  1  0  0  0  0  0  0  0  0  0
    3.2117   -0.8125    3.2542 O   0  0  0  0  0  0  0  0  0  0  0  0
    5.1269   -3.4982    0.5482 C   0  0  1  0  0  0  0  0  0  0  0  0
    6.1219   -4.2153    1.4795 C   0  0  0  0  0  0  0  0  0  0  0  0
    4.9512   -4.2308   -0.7882 C   0  0  2  0  0  0  0  0  0  0  0  0
    5.7170   -3.6972   -2.0082 C   0  0  0  0  0  0  0  0  0  0  0  0
    5.2890   -2.2771   -2.4236 C   0  0  0  0  0  0  0  0  0  0  0  0
    3.9634   -1.7855   -1.7600 C   0  0  2  0  0  0  0  0  0  0  0  0
    3.3691   -0.6872   -2.6636 C   0  0  0  0  0  0  0  0  0  0  0  0
    2.9392   -2.9486   -1.6674 C   0  0  1  0  0  0  0  0  0  0  0  0
    2.8036   -3.4638   -2.9751 O   0  0  0  0  0  0  0  0  0  0  0  0
    3.4486   -3.9817   -0.6921 C   0  0  2  0  0  0  0  0  0  0  0  0
    3.0170   -7.6475    2.0154 H   0  0  0  0  0  0  0  0  0  0  0  0
    1.7802   -8.1755    3.1407 H   0  0  0  0  0  0  0  0  0  0  0  0
    2.8647   -6.8939    3.6113 H   0  0  0  0  0  0  0  0  0  0  0  0
    3.5725   -4.6652    2.7295 H   0  0  0  0  0  0  0  0  0  0  0  0
    3.7850   -5.7197    1.3167 H   0  0  0  0  0  0  0  0  0  0  0  0
    1.9580   -2.5218    1.7250 H   0  0  0  0  0  0  0  0  0  0  0  0
    4.5756   -0.2002   -0.4152 H   0  0  0  0  0  0  0  0  0  0  0  0
    6.4131   -1.7804    0.1231 H   0  0  0  0  0  0  0  0  0  0  0  0
    6.0604   -1.8549    2.6173 H   0  0  0  0  0  0  0  0  0  0  0  0
    4.6534    0.2826    1.5334 H   0  0  0  0  0  0  0  0  0  0  0  0
    4.0319   -2.6507    3.2849 H   0  0  0  0  0  0  0  0  0  0  0  0
    2.4597   -0.5589    2.7467 H   0  0  0  0  0  0  0  0  0  0  0  0
    7.1552   -3.9441    1.2459 H   0  0  0  0  0  0  0  0  0  0  0  0
    6.0394   -5.2999    1.3837 H   0  0  0  0  0  0  0  0  0  0  0  0
    5.9274   -3.9970    2.5295 H   0  0  0  0  0  0  0  0  0  0  0  0
    5.0939   -5.3087   -0.6553 H   0  0  0  0  0  0  0  0  0  0  0  0
    6.7967   -3.7180   -1.8507 H   0  0  0  0  0  0  0  0  0  0  0  0
    5.5238   -4.3477   -2.8658 H   0  0  0  0  0  0  0  0  0  0  0  0
    6.0882   -1.5631   -2.2046 H   0  0  0  0  0  0  0  0  0  0  0  0
    5.1768   -2.2722   -3.5130 H   0  0  0  0  0  0  0  0  0  0  0  0
    3.2704   -1.0349   -3.6909 H   0  0  0  0  0  0  0  0  0  0  0  0
    3.9946    0.2108   -2.6785 H   0  0  0  0  0  0  0  0  0  0  0  0
    2.3582   -0.4271   -2.3380 H   0  0  0  0  0  0  0  0  0  0  0  0
    1.9463   -2.6403   -1.3496 H   0  0  0  0  0  0  0  0  0  0  0  0
    2.7217   -4.4113   -2.9324 H   0  0  0  0  0  0  0  0  0  0  0  0
    2.8855   -4.9116   -0.7302 H   0  0  0  0  0  0  0  0  0  0  0  0
  1  2  1  0
  1 25  1  0
  1 26  1  0
  1 27  1  0
  2  3  2  0
  2  4  1  0
  4  5  1  0
  6  5  1  1
  5 28  1  0
  5 29  1  0
  6 15  1  0
  6 24  1  0
  6  7  1  0
  7 13  1  0
  7  8  1  0
  7 30  1  1
  8  9  1  0
  9 20  1  0
  9 10  1  0
  9 31  1  6
 10 11  1  0
 10 15  1  0
 10 32  1  6
 11 12  1  0
 11 13  1  0
 11 33  1  1
 12 34  1  0
 13 14  1  0
 13 35  1  1
 14 36  1  0
 15 16  1  1
 15 17  1  0
 16 37  1  0
 16 38  1  0
 16 39  1  0
 17 24  1  0
 17 18  1  0
 17 40  1  1
 18 19  1  0
 18 41  1  0
 18 42  1  0
 19 20  1  0
 19 43  1  0
 19 44  1  0
 20 21  1  6
 20 22  1  0
 21 45  1  0
 21 46  1  0
 21 47  1  0
 22 23  1  0
 22 24  1  0
 22 48  1  1
 23 49  1  0
 24 50  1  1
M  END
>  <i_m_ct_stereo_status>  (252) 
1

>  <s_m_source_file>  (252) 
/var/tmp/pbs.5076255.sched01/tmp9n4xeji_/82rcfztp6i.sdf

>  <i_m_source_file_index>  (252) 
27

>  <i_lp_mmshare_version>  (252) 
48012

>  <i_f3d_flags>  (252) 
0

>  <s_epik_input>  (252) 
W0NIM11DKD1PKU9bQ0gyXVtDQEBdMTJbQ0BASF0zT1tDQEhdNFtDQEBIXShbQ0BASF0oW09IXSlbQ0BIXTNbT0hdKVtDQF0xKFtDSDNdKVtDQEhdNVtDQEBIXTJbQ0BIXShbT0hdKVtDQF00KFtDSDNdKVtDSDJdW0NIMl01

>  <s_epik_cmdline>  (252) 
J2VwaWtfcHl0aG9uJywgJy1waHQnLCAnMi4wJywgJy1waCcsICc3LjAnLCAnLXRuJywgJzgnLCAnLW1hJywgJzIwMCcsICctaW1hZScsICc8aW5maWxlLm1hZT4nLCAnLW9tYWUnLCAnPG91dGZpbGUubWFlPic=

>  <r_lp_tautomer_probability>  (252) 
1

>  <r_epik_Ionization_Penalty>  (252) 
2.64767e-07

>  <r_epik_Ionization_Penalty_Charging>  (252) 
0

>  <r_epik_Ionization_Penalty_Neutral>  (252) 
2.64767e-07

>  <r_epik_State_Penalty>  (252) 
-0

>  <r_epik_Charging_Adjusted_Penalty>  (252) 
0

>  <i_epik_Tot_Q>  (252) 
0

>  <i_epik_Tot_abs_Q>  (252) 
0

>  <s_epik_Chemistry_Notes>  (252) 
This compound has an ester and may undergo hydrolysis at high or low pH.

>  <s_lp_Force_Field>  (252) 
OPLS3e

>  <r_lp_Energy>  (252) 
62.384

>  <b_lp_Chiralities_Consistent>  (252) 
1

>  <s_lp_Variant>  (252) 
77:0-1

>  <s_i_glide_gridfile>  (252) 
pfpi4k_grid

>  <i_i_glide_lignum>  (252) 
27

>  <i_i_glide_rotatable_bonds>  (252) 
6

>  <r_i_docking_score>  (252) 
-3.79985

>  <r_i_glide_ligand_efficiency>  (252) 
-0.158327

>  <r_i_glide_ligand_efficiency_sa>  (252) 
-0.456694

>  <r_i_glide_ligand_efficiency_ln>  (252) 
-0.909478

>  <r_i_glide_gscore>  (252) 
-3.79985

>  <r_i_glide_lipo>  (252) 
-0.483171

>  <r_i_glide_hbond>  (252) 
-0.522489

>  <r_i_glide_metal>  (252) 
-0

>  <r_i_glide_rewards>  (252) 
-1.10185

>  <r_i_glide_evdw>  (252) 
-16.3968

>  <r_i_glide_ecoul>  (252) 
-7.69829

>  <r_i_glide_erotb>  (252) 
0.330298

>  <r_i_glide_esite>  (252) 
-0.0480512

>  <r_i_glide_emodel>  (252) 
-23.0981

>  <r_i_glide_energy>  (252) 
-24.0951

>  <r_i_glide_einternal>  (252) 
9.09826

>  <r_i_glide_intrahb_reward>  (252) 
-0

>  <i_i_glide_confnum>  (252) 
3

>  <i_i_glide_posenum>  (252) 
37

>  <r_i_glide_eff_state_penalty>  (252) 
0

>  <ligand_id>  (252) 
77

>  <original_smiles>  (252) 
CC(=O)OCC12C3OC4C(C(O)C3O)C1(C)C1CCC4(C)C(O)C12

>  <smiles>  (252) 
[H]OC1([H])C([H])(O[H])C2([H])C3([H])OC1([H])C1(C([H])([H])OC(=O)C([H])([H])[H])C4([H])C([H])(O[H])C3(C([H])([H])[H])C([H])([H])C([H])([H])C4([H])C21C([H])([H])[H]

$$$$
77:0:2
     RDKit          3D

 50 54  0  0  1  0  0  0  0  0999 V2000
    2.3373   -7.8089    1.7390 C   0  0  0  0  0  0  0  0  0  0  0  0
    1.3737   -6.6612    1.4848 C   0  0  0  0  0  0  0  0  0  0  0  0
    0.1495   -6.8772    1.3571 O   0  0  0  0  0  0  0  0  0  0  0  0
    1.8795   -5.4175    1.3868 O   0  0  0  0  0  0  0  0  0  0  0  0
    3.2440   -5.1039    1.6458 C   0  0  0  0  0  0  0  0  0  0  0  0
    3.6828   -3.8514    0.8919 C   0  0  1  0  0  0  0  0  0  0  0  0
    2.9442   -2.6025    1.4756 C   0  0  2  0  0  0  0  0  0  0  0  0
    3.1117   -1.4766    0.6026 O   0  0  0  0  0  0  0  0  0  0  0  0
    4.4266   -1.3289    0.0293 C   0  0  1  0  0  0  0  0  0  0  0  0
    5.4408   -2.0920    0.9721 C   0  0  1  0  0  0  0  0  0  0  0  0
    5.1025   -1.6539    2.4273 C   0  0  1  0  0  0  0  0  0  0  0  0
    5.2769   -0.2514    2.5865 O   0  0  0  0  0  0  0  0  0  0  0  0
    3.6567   -2.1249    2.7650 C   0  0  1  0  0  0  0  0  0  0  0  0
    2.8745   -1.1538    3.4453 O   0  0  0  0  0  0  0  0  0  0  0  0
    5.2136   -3.6199    0.8545 C   0  0  1  0  0  0  0  0  0  0  0  0
    6.0890   -4.3897    1.8653 C   0  0  0  0  0  0  0  0  0  0  0  0
    5.2498   -4.2546   -0.5420 C   0  0  2  0  0  0  0  0  0  0  0  0
    6.1535   -3.6199   -1.5894 C   0  0  0  0  0  0  0  0  0  0  0  0
    5.7329   -2.1983   -1.9756 C   0  0  0  0  0  0  0  0  0  0  0  0
    4.3274   -1.7816   -1.4743 C   0  0  2  0  0  0  0  0  0  0  0  0
    3.8306   -0.6320   -2.3735 C   0  0  0  0  0  0  0  0  0  0  0  0
    3.3255   -2.9647   -1.6013 C   0  0  1  0  0  0  0  0  0  0  0  0
    3.3290   -3.4368   -2.9329 O   0  0  0  0  0  0  0  0  0  0  0  0
    3.7458   -4.0485   -0.6386 C   0  0  2  0  0  0  0  0  0  0  0  0
    3.0831   -7.8641    0.9340 H   0  0  0  0  0  0  0  0  0  0  0  0
    1.8460   -8.7785    1.7934 H   0  0  0  0  0  0  0  0  0  0  0  0
    2.8738   -7.6600    2.6835 H   0  0  0  0  0  0  0  0  0  0  0  0
    3.3829   -4.9890    2.7199 H   0  0  0  0  0  0  0  0  0  0  0  0
    3.8944   -5.9047    1.3082 H   0  0  0  0  0  0  0  0  0  0  0  0
    1.8867   -2.7961    1.6459 H   0  0  0  0  0  0  0  0  0  0  0  0
    4.6735   -0.2673    0.0512 H   0  0  0  0  0  0  0  0  0  0  0  0
    6.4789   -1.8439    0.7286 H   0  0  0  0  0  0  0  0  0  0  0  0
    5.8022   -2.1065    3.1330 H   0  0  0  0  0  0  0  0  0  0  0  0
    4.5783    0.1734    2.1583 H   0  0  0  0  0  0  0  0  0  0  0  0
    3.7320   -2.9750    3.4467 H   0  0  0  0  0  0  0  0  0  0  0  0
    2.6858   -0.4768    2.8444 H   0  0  0  0  0  0  0  0  0  0  0  0
    7.1348   -4.0960    1.7886 H   0  0  0  0  0  0  0  0  0  0  0  0
    6.0568   -5.4645    1.6863 H   0  0  0  0  0  0  0  0  0  0  0  0
    5.7588   -4.2608    2.8963 H   0  0  0  0  0  0  0  0  0  0  0  0
    5.4223   -5.3258   -0.4631 H   0  0  0  0  0  0  0  0  0  0  0  0
    7.2000   -3.6300   -1.2840 H   0  0  0  0  0  0  0  0  0  0  0  0
    6.1091   -4.2125   -2.5028 H   0  0  0  0  0  0  0  0  0  0  0  0
    6.4698   -1.4776   -1.6210 H   0  0  0  0  0  0  0  0  0  0  0  0
    5.7548   -2.1665   -3.0659 H   0  0  0  0  0  0  0  0  0  0  0  0
    3.8058   -0.9163   -3.4254 H   0  0  0  0  0  0  0  0  0  0  0  0
    4.4780    0.2424   -2.3073 H   0  0  0  0  0  0  0  0  0  0  0  0
    2.8055   -0.3591   -2.1335 H   0  0  0  0  0  0  0  0  0  0  0  0
    2.3018   -2.6459   -1.3952 H   0  0  0  0  0  0  0  0  0  0  0  0
    3.0143   -4.3521   -2.9198 H   0  0  0  0  0  0  0  0  0  0  0  0
    3.2495   -4.9919   -0.8298 H   0  0  0  0  0  0  0  0  0  0  0  0
  1  2  1  0
  1 25  1  0
  1 26  1  0
  1 27  1  0
  2  3  2  0
  2  4  1  0
  4  5  1  0
  6  5  1  1
  5 28  1  0
  5 29  1  0
  6 15  1  0
  6 24  1  0
  6  7  1  0
  7 13  1  0
  7  8  1  0
  7 30  1  1
  8  9  1  0
  9 20  1  0
  9 10  1  0
  9 31  1  6
 10 11  1  0
 10 15  1  0
 10 32  1  6
 11 12  1  0
 11 13  1  0
 11 33  1  1
 12 34  1  0
 13 14  1  0
 13 35  1  1
 14 36  1  0
 15 16  1  1
 15 17  1  0
 16 37  1  0
 16 38  1  0
 16 39  1  0
 17 24  1  0
 17 18  1  0
 17 40  1  1
 18 19  1  0
 18 41  1  0
 18 42  1  0
 19 20  1  0
 19 43  1  0
 19 44  1  0
 20 21  1  6
 20 22  1  0
 21 45  1  0
 21 46  1  0
 21 47  1  0
 22 23  1  0
 22 24  1  0
 22 48  1  1
 23 49  1  0
 24 50  1  1
M  END
>  <i_m_ct_stereo_status>  (253) 
1

>  <s_m_source_file>  (253) 
/var/tmp/pbs.5076255.sched01/tmp9n4xeji_/82rcfztp6i.sdf

>  <i_m_source_file_index>  (253) 
27

>  <i_lp_mmshare_version>  (253) 
48012

>  <i_f3d_flags>  (253) 
0

>  <s_epik_input>  (253) 
W0NIM11DKD1PKU9bQ0gyXVtDQEBdMTJbQ0BASF0zT1tDQEhdNFtDQEBIXShbQ0BASF0oW09IXSlbQ0BIXTNbT0hdKVtDQF0xKFtDSDNdKVtDQEhdNVtDQEBIXTJbQ0BIXShbT0hdKVtDQF00KFtDSDNdKVtDSDJdW0NIMl01

>  <s_epik_cmdline>  (253) 
J2VwaWtfcHl0aG9uJywgJy1waHQnLCAnMi4wJywgJy1waCcsICc3LjAnLCAnLXRuJywgJzgnLCAnLW1hJywgJzIwMCcsICctaW1hZScsICc8aW5maWxlLm1hZT4nLCAnLW9tYWUnLCAnPG91dGZpbGUubWFlPic=

>  <r_lp_tautomer_probability>  (253) 
1

>  <r_epik_Ionization_Penalty>  (253) 
2.64767e-07

>  <r_epik_Ionization_Penalty_Charging>  (253) 
0

>  <r_epik_Ionization_Penalty_Neutral>  (253) 
2.64767e-07

>  <r_epik_State_Penalty>  (253) 
-0

>  <r_epik_Charging_Adjusted_Penalty>  (253) 
0

>  <i_epik_Tot_Q>  (253) 
0

>  <i_epik_Tot_abs_Q>  (253) 
0

>  <s_epik_Chemistry_Notes>  (253) 
This compound has an ester and may undergo hydrolysis at high or low pH.

>  <s_lp_Force_Field>  (253) 
OPLS3e

>  <r_lp_Energy>  (253) 
62.384

>  <b_lp_Chiralities_Consistent>  (253) 
1

>  <s_lp_Variant>  (253) 
77:0-1

>  <s_i_glide_gridfile>  (253) 
pfpi4k_grid

>  <i_i_glide_lignum>  (253) 
27

>  <i_i_glide_rotatable_bonds>  (253) 
6

>  <r_i_docking_score>  (253) 
-3.56634

>  <r_i_glide_ligand_efficiency>  (253) 
-0.148598

>  <r_i_glide_ligand_efficiency_sa>  (253) 
-0.42863

>  <r_i_glide_ligand_efficiency_ln>  (253) 
-0.853589

>  <r_i_glide_gscore>  (253) 
-3.56634

>  <r_i_glide_lipo>  (253) 
-0.446512

>  <r_i_glide_hbond>  (253) 
-0.420963

>  <r_i_glide_metal>  (253) 
-0

>  <r_i_glide_rewards>  (253) 
-1.10185

>  <r_i_glide_evdw>  (253) 
-18.9624

>  <r_i_glide_ecoul>  (253) 
-6.14915

>  <r_i_glide_erotb>  (253) 
0.330298

>  <r_i_glide_esite>  (253) 
-0.0568225

>  <r_i_glide_emodel>  (253) 
-25.8982

>  <r_i_glide_energy>  (253) 
-25.1115

>  <r_i_glide_einternal>  (253) 
7.32036

>  <r_i_glide_intrahb_reward>  (253) 
-0

>  <i_i_glide_confnum>  (253) 
3

>  <i_i_glide_posenum>  (253) 
9

>  <r_i_glide_eff_state_penalty>  (253) 
0

>  <ligand_id>  (253) 
77

>  <original_smiles>  (253) 
CC(=O)OCC12C3OC4C(C(O)C3O)C1(C)C1CCC4(C)C(O)C12

>  <smiles>  (253) 
[H]OC1([H])C([H])(O[H])C2([H])C3([H])OC1([H])C1(C([H])([H])OC(=O)C([H])([H])[H])C4([H])C([H])(O[H])C3(C([H])([H])[H])C([H])([H])C([H])([H])C4([H])C21C([H])([H])[H]

$$$$
78:0:0
     RDKit          3D

 68 73  0  0  1  0  0  0  0  0999 V2000
    4.9217   -8.2554    6.3802 C   0  0  0  0  0  0  0  0  0  0  0  0
    4.2417   -7.7923    5.0639 C   0  0  2  0  0  0  0  0  0  0  0  0
    3.1849   -6.7125    5.4607 C   0  0  0  0  0  0  0  0  0  0  0  0
    1.9939   -7.2465    6.2704 C   0  0  0  0  0  0  0  0  0  0  0  0
    1.3847   -8.4684    5.6048 C   0  0  0  0  0  0  0  0  0  0  0  0
    0.1753   -8.5495    5.4277 O   0  0  0  0  0  0  0  0  0  0  0  0
    2.3426   -9.5937    5.2280 C   0  0  0  0  0  0  0  0  0  0  0  0
    3.5434   -9.0319    4.4704 C   0  0  0  0  0  0  0  0  0  0  0  0
    3.9411   -9.6315    3.3293 C   0  0  0  0  0  0  0  0  0  0  0  0
    5.1149   -9.1792    2.4896 C   0  0  0  0  0  0  0  0  0  0  0  0
    5.4178   -7.6816    2.6243 C   0  0  2  0  0  0  0  0  0  0  0  0
    5.3822   -7.2262    4.1099 C   0  0  1  0  0  0  0  0  0  0  0  0
    5.7220   -5.7230    4.2123 C   0  0  0  0  0  0  0  0  0  0  0  0
    4.9591   -4.8317    3.2046 C   0  0  0  0  0  0  0  0  0  0  0  0
    5.1041   -5.2727    1.7153 C   0  0  1  0  0  0  0  0  0  0  0  0
    6.5815   -5.0982    1.2661 C   0  0  0  0  0  0  0  0  0  0  0  0
    4.6841   -6.7722    1.5888 C   0  0  2  0  0  0  0  0  0  0  0  0
    3.1584   -6.9529    1.6437 C   0  0  0  0  0  0  0  0  0  0  0  0
    2.4164   -5.9440    0.7709 C   0  0  0  0  0  0  0  0  0  0  0  0
    2.8434   -4.6152    0.9925 O   0  0  0  0  0  0  0  0  0  0  0  0
    4.2059   -4.3417    0.7702 C   0  0  2  0  0  0  0  0  0  0  0  0
    4.5459   -4.5296   -0.5561 O   0  0  0  0  0  0  0  0  0  0  0  0
    3.9234   -3.5267   -1.3615 C   0  0  2  0  0  0  0  0  0  0  0  0
    4.7603   -3.2579   -2.6367 C   0  0  1  0  0  0  0  0  0  0  0  0
    4.6018   -4.2504   -3.6160 O   0  0  0  0  0  0  0  0  0  0  0  0
    4.3195   -1.9139   -3.2873 C   0  0  1  0  0  0  0  0  0  0  0  0
    3.0410   -2.0141   -3.9106 O   0  0  0  0  0  0  0  0  0  0  0  0
    4.2772   -0.8047   -2.2313 C   0  0  0  0  0  0  0  0  0  0  0  0
    4.6822   -1.2919   -0.9690 O   0  0  0  0  0  0  0  0  0  0  0  0
    3.8286   -2.2957   -0.4672 C   0  0  2  0  0  0  0  0  0  0  0  0
    4.3666   -2.7982    0.8757 C   0  0  1  0  0  0  0  0  0  0  0  0
    3.6842   -2.2182    1.9837 O   0  0  0  0  0  0  0  0  0  0  0  0
    5.4567   -7.4409    6.8740 H   0  0  0  0  0  0  0  0  0  0  0  0
    5.6376   -9.0590    6.1913 H   0  0  0  0  0  0  0  0  0  0  0  0
    4.2079   -8.6584    7.1019 H   0  0  0  0  0  0  0  0  0  0  0  0
    3.6425   -5.9101    6.0411 H   0  0  0  0  0  0  0  0  0  0  0  0
    2.7656   -6.2319    4.5872 H   0  0  0  0  0  0  0  0  0  0  0  0
    2.2941   -7.5209    7.2791 H   0  0  0  0  0  0  0  0  0  0  0  0
    1.2326   -6.4726    6.3779 H   0  0  0  0  0  0  0  0  0  0  0  0
    2.6618  -10.1001    6.1359 H   0  0  0  0  0  0  0  0  0  0  0  0
    1.8166  -10.3221    4.6126 H   0  0  0  0  0  0  0  0  0  0  0  0
    3.4445  -10.5227    2.9715 H   0  0  0  0  0  0  0  0  0  0  0  0
    5.9721   -9.7680    2.8250 H   0  0  0  0  0  0  0  0  0  0  0  0
    4.9339   -9.4524    1.4485 H   0  0  0  0  0  0  0  0  0  0  0  0
    6.4691   -7.6292    2.3444 H   0  0  0  0  0  0  0  0  0  0  0  0
    6.2713   -7.7025    4.5209 H   0  0  0  0  0  0  0  0  0  0  0  0
    5.5710   -5.3557    5.2221 H   0  0  0  0  0  0  0  0  0  0  0  0
    6.7942   -5.5985    4.0444 H   0  0  0  0  0  0  0  0  0  0  0  0
    3.9031   -4.7728    3.4817 H   0  0  0  0  0  0  0  0  0  0  0  0
    5.3383   -3.8149    3.3231 H   0  0  0  0  0  0  0  0  0  0  0  0
    6.7144   -5.3949    0.2267 H   0  0  0  0  0  0  0  0  0  0  0  0
    7.2665   -5.7008    1.8508 H   0  0  0  0  0  0  0  0  0  0  0  0
    6.9355   -4.0748    1.3804 H   0  0  0  0  0  0  0  0  0  0  0  0
    4.9800   -7.1179    0.5990 H   0  0  0  0  0  0  0  0  0  0  0  0
    2.9046   -7.9514    1.2887 H   0  0  0  0  0  0  0  0  0  0  0  0
    2.7841   -6.9276    2.6590 H   0  0  0  0  0  0  0  0  0  0  0  0
    2.5290   -6.1977   -0.2803 H   0  0  0  0  0  0  0  0  0  0  0  0
    1.3527   -6.0281    0.9937 H   0  0  0  0  0  0  0  0  0  0  0  0
    2.9104   -3.8261   -1.6232 H   0  0  0  0  0  0  0  0  0  0  0  0
    5.8247   -3.1759   -2.3722 H   0  0  0  0  0  0  0  0  0  0  0  0
    4.0288   -4.9215   -3.2451 H   0  0  0  0  0  0  0  0  0  0  0  0
    5.0087   -1.6360   -4.0897 H   0  0  0  0  0  0  0  0  0  0  0  0
    2.4038   -2.1730   -3.2387 H   0  0  0  0  0  0  0  0  0  0  0  0
    4.9659   -0.0202   -2.5129 H   0  0  0  0  0  0  0  0  0  0  0  0
    3.2896   -0.3670   -2.1996 H   0  0  0  0  0  0  0  0  0  0  0  0
    2.8060   -1.9255   -0.3881 H   0  0  0  0  0  0  0  0  0  0  0  0
    5.4354   -2.5526    0.9245 H   0  0  0  0  0  0  0  0  0  0  0  0
    3.7376   -1.2847    1.8970 H   0  0  0  0  0  0  0  0  0  0  0  0
  2  1  1  1
  1 33  1  0
  1 34  1  0
  1 35  1  0
  2  8  1  0
  2 12  1  0
  2  3  1  0
  3  4  1  0
  3 36  1  0
  3 37  1  0
  4  5  1  0
  4 38  1  0
  4 39  1  0
  5  6  2  0
  5  7  1  0
  7  8  1  0
  7 40  1  0
  7 41  1  0
  8  9  2  0
  9 10  1  0
  9 42  1  0
 10 11  1  0
 10 43  1  0
 10 44  1  0
 11 17  1  0
 11 12  1  0
 11 45  1  6
 12 13  1  0
 12 46  1  1
 13 14  1  0
 13 47  1  0
 13 48  1  0
 14 15  1  0
 14 49  1  0
 14 50  1  0
 15 21  1  0
 15 16  1  6
 15 17  1  0
 16 51  1  0
 16 52  1  0
 16 53  1  0
 17 18  1  0
 17 54  1  6
 18 19  1  0
 18 55  1  0
 18 56  1  0
 19 20  1  0
 19 57  1  0
 19 58  1  0
 21 20  1  6
 21 31  1  0
 21 22  1  0
 22 23  1  0
 23 30  1  0
 23 24  1  0
 23 59  1  6
 24 25  1  0
 24 26  1  0
 24 60  1  1
 25 61  1  0
 26 27  1  0
 26 28  1  0
 26 62  1  6
 27 63  1  0
 28 29  1  0
 28 64  1  0
 28 65  1  0
 29 30  1  0
 30 31  1  0
 30 66  1  1
 31 32  1  0
 31 67  1  1
 32 68  1  0
M  END
>  <i_m_ct_stereo_status>  (254) 
1

>  <s_m_source_file>  (254) 
/var/tmp/pbs.5076255.sched01/tmp9n4xeji_/82rcfztp6i.sdf

>  <i_m_source_file_index>  (254) 
28

>  <i_lp_mmshare_version>  (254) 
48012

>  <i_f3d_flags>  (254) 
0

>  <s_epik_input>  (254) 
W0NIMl0xW0NIMl1DKD1PKVtDSDJdQyg9W0NIXVtDSDJdMilbQ0BAXTEoW0NIM10pW0NASF0oW0NIMl1bQ0gyXTMpW0NAQEhdMltDQEBIXShbQ0gyXVtDSDJdTzQpW0NAQF0zKFtDSDNdKVtDQEBdNDVPW0NASF02W0NAQEhdKFtDQEhdNVtPSF0pT1tDSDJdW0NASF0oW09IXSlbQ0BASF02W09IXQ==

>  <s_epik_cmdline>  (254) 
J2VwaWtfcHl0aG9uJywgJy1waHQnLCAnMi4wJywgJy1waCcsICc3LjAnLCAnLXRuJywgJzgnLCAnLW1hJywgJzIwMCcsICctaW1hZScsICc8aW5maWxlLm1hZT4nLCAnLW9tYWUnLCAnPG91dGZpbGUubWFlPic=

>  <r_lp_tautomer_probability>  (254) 
1

>  <r_epik_Ionization_Penalty>  (254) 
5.83387e-06

>  <r_epik_Ionization_Penalty_Charging>  (254) 
0

>  <r_epik_Ionization_Penalty_Neutral>  (254) 
5.83387e-06

>  <r_epik_State_Penalty>  (254) 
-0

>  <r_epik_Charging_Adjusted_Penalty>  (254) 
0

>  <i_epik_Tot_Q>  (254) 
0

>  <i_epik_Tot_abs_Q>  (254) 
0

>  <s_lp_Force_Field>  (254) 
OPLS3e

>  <r_lp_Energy>  (254) 
68.5282

>  <b_lp_Chiralities_Consistent>  (254) 
1

>  <s_lp_Variant>  (254) 
78:0-1

>  <s_i_glide_gridfile>  (254) 
pfpi4k_grid

>  <i_i_glide_lignum>  (254) 
28

>  <i_i_glide_rotatable_bonds>  (254) 
3

>  <r_i_docking_score>  (254) 
-3.31042

>  <r_i_glide_ligand_efficiency>  (254) 
-0.103451

>  <r_i_glide_ligand_efficiency_sa>  (254) 
-0.328436

>  <r_i_glide_ligand_efficiency_ln>  (254) 
-0.741294

>  <r_i_glide_gscore>  (254) 
-3.31042

>  <r_i_glide_lipo>  (254) 
-0.471862

>  <r_i_glide_hbond>  (254) 
0

>  <r_i_glide_metal>  (254) 
-0

>  <r_i_glide_rewards>  (254) 
-0.386322

>  <r_i_glide_evdw>  (254) 
-30.8534

>  <r_i_glide_ecoul>  (254) 
-5.93282

>  <r_i_glide_erotb>  (254) 
0

>  <r_i_glide_esite>  (254) 
-0.0196462

>  <r_i_glide_emodel>  (254) 
-43.3393

>  <r_i_glide_energy>  (254) 
-36.7862

>  <r_i_glide_einternal>  (254) 
1.93271

>  <r_i_glide_intrahb_reward>  (254) 
-0

>  <i_i_glide_confnum>  (254) 
2

>  <i_i_glide_posenum>  (254) 
26

>  <r_i_glide_eff_state_penalty>  (254) 
0

>  <ligand_id>  (254) 
78

>  <original_smiles>  (254) 
CC12CCC(=O)CC1=CCC1C2CCC2(C)C1CCOC21OC2C(O)C(O)COC2C1O

>  <smiles>  (254) 
[H]OC1([H])C([H])([H])OC2([H])C([H])(OC3(OC([H])([H])C([H])([H])C4([H])C5([H])C([H])([H])C([H])=C6C([H])([H])C(=O)C([H])([H])C([H])([H])C6(C([H])([H])[H])C5([H])C([H])([H])C([H])([H])C34C([H])([H])[H])C2([H])O[H])C1([H])O[H]

$$$$
78:0:1
     RDKit          3D

 68 73  0  0  1  0  0  0  0  0999 V2000
    4.3150   -8.2317    6.4816 C   0  0  0  0  0  0  0  0  0  0  0  0
    3.7166   -7.7737    5.1229 C   0  0  2  0  0  0  0  0  0  0  0  0
    2.6221   -6.7037    5.4491 C   0  0  0  0  0  0  0  0  0  0  0  0
    1.3840   -7.2482    6.1819 C   0  0  0  0  0  0  0  0  0  0  0  0
    0.8418   -8.4712    5.4743 C   0  0  0  0  0  0  0  0  0  0  0  0
   -0.3654   -8.5592    5.2063 O   0  0  0  0  0  0  0  0  0  0  0  0
    1.8230   -9.5883    5.1606 C   0  0  0  0  0  0  0  0  0  0  0  0
    3.0678   -9.0142    4.4863 C   0  0  0  0  0  0  0  0  0  0  0  0
    3.5535   -9.6194    3.3711 C   0  0  0  0  0  0  0  0  0  0  0  0
    4.7718   -9.1549    2.6139 C   0  0  0  0  0  0  0  0  0  0  0  0
    5.0500   -7.6559    2.7656 C   0  0  2  0  0  0  0  0  0  0  0  0
    4.9132   -7.1949    4.2467 C   0  0  1  0  0  0  0  0  0  0  0  0
    5.2282   -5.6873    4.3675 C   0  0  0  0  0  0  0  0  0  0  0  0
    4.5217   -4.8032    3.3089 C   0  0  0  0  0  0  0  0  0  0  0  0
    4.7650   -5.2396    1.8405 C   0  0  1  0  0  0  0  0  0  0  0  0
    6.2674   -5.0549    1.4811 C   0  0  0  0  0  0  0  0  0  0  0  0
    4.3664   -6.7503    1.6842 C   0  0  2  0  0  0  0  0  0  0  0  0
    2.8462   -6.9539    1.6435 C   0  0  0  0  0  0  0  0  0  0  0  0
    2.1503   -5.9500    0.7275 C   0  0  0  0  0  0  0  0  0  0  0  0
    2.5396   -4.6046    0.9943 O   0  0  0  0  0  0  0  0  0  0  0  0
    3.9170   -4.3227    0.8423 C   0  0  2  0  0  0  0  0  0  0  0  0
    4.3210   -4.5293   -0.4764 O   0  0  0  0  0  0  0  0  0  0  0  0
    3.7805   -3.5138   -1.3289 C   0  0  2  0  0  0  0  0  0  0  0  0
    4.6904   -3.2245   -2.5462 C   0  0  1  0  0  0  0  0  0  0  0  0
    4.6151   -4.2510   -3.5215 O   0  0  0  0  0  0  0  0  0  0  0  0
    4.2786   -1.8970   -3.2325 C   0  0  1  0  0  0  0  0  0  0  0  0
    3.0308   -2.0114   -3.8996 O   0  0  0  0  0  0  0  0  0  0  0  0
    4.1704   -0.7698   -2.1943 C   0  0  0  0  0  0  0  0  0  0  0  0
    4.4916   -1.2316   -0.8815 O   0  0  0  0  0  0  0  0  0  0  0  0
    3.6532   -2.2856   -0.4259 C   0  0  2  0  0  0  0  0  0  0  0  0
    4.0794   -2.7817    0.9559 C   0  0  1  0  0  0  0  0  0  0  0  0
    3.3268   -2.1854    1.9946 O   0  0  0  0  0  0  0  0  0  0  0  0
    4.8062   -7.4136    7.0084 H   0  0  0  0  0  0  0  0  0  0  0  0
    5.0491   -9.0267    6.3387 H   0  0  0  0  0  0  0  0  0  0  0  0
    3.5591   -8.6377    7.1537 H   0  0  0  0  0  0  0  0  0  0  0  0
    3.0341   -5.8977    6.0548 H   0  0  0  0  0  0  0  0  0  0  0  0
    2.2541   -6.2279    4.5498 H   0  0  0  0  0  0  0  0  0  0  0  0
    1.6266   -7.5238    7.2071 H   0  0  0  0  0  0  0  0  0  0  0  0
    0.6118   -6.4839    6.2412 H   0  0  0  0  0  0  0  0  0  0  0  0
    2.0966  -10.0919    6.0875 H   0  0  0  0  0  0  0  0  0  0  0  0
    1.3450  -10.3231    4.5165 H   0  0  0  0  0  0  0  0  0  0  0  0
    3.0855  -10.5121    2.9916 H   0  0  0  0  0  0  0  0  0  0  0  0
    5.6142   -9.7347    2.9974 H   0  0  0  0  0  0  0  0  0  0  0  0
    4.6639   -9.4283    1.5623 H   0  0  0  0  0  0  0  0  0  0  0  0
    6.1137   -7.5889    2.5486 H   0  0  0  0  0  0  0  0  0  0  0  0
    5.7821   -7.6594    4.7094 H   0  0  0  0  0  0  0  0  0  0  0  0
    5.0166   -5.3211    5.3714 H   0  0  0  0  0  0  0  0  0  0  0  0
    6.3064   -5.5494    4.2653 H   0  0  0  0  0  0  0  0  0  0  0  0
    3.4511   -4.7548    3.5226 H   0  0  0  0  0  0  0  0  0  0  0  0
    4.8849   -3.7839    3.4544 H   0  0  0  0  0  0  0  0  0  0  0  0
    6.4715   -5.3533    0.4556 H   0  0  0  0  0  0  0  0  0  0  0  0
    6.9204   -5.6507    2.1129 H   0  0  0  0  0  0  0  0  0  0  0  0
    6.6062   -4.0319    1.6168 H   0  0  0  0  0  0  0  0  0  0  0  0
    4.7355   -7.0871    0.7164 H   0  0  0  0  0  0  0  0  0  0  0  0
    2.6278   -7.9546    1.2815 H   0  0  0  0  0  0  0  0  0  0  0  0
    2.4067   -6.9227    2.6292 H   0  0  0  0  0  0  0  0  0  0  0  0
    2.3314   -6.1900   -0.3187 H   0  0  0  0  0  0  0  0  0  0  0  0
    1.0724   -6.0491    0.8797 H   0  0  0  0  0  0  0  0  0  0  0  0
    2.7824   -3.7917   -1.6599 H   0  0  0  0  0  0  0  0  0  0  0  0
    5.7351   -3.1325   -2.2070 H   0  0  0  0  0  0  0  0  0  0  0  0
    4.0355   -4.9363   -3.1676 H   0  0  0  0  0  0  0  0  0  0  0  0
    4.9892   -1.6115   -3.9952 H   0  0  0  0  0  0  0  0  0  0  0  0
    2.3544   -2.1615   -3.2702 H   0  0  0  0  0  0  0  0  0  0  0  0
    4.8690    0.0237   -2.4332 H   0  0  0  0  0  0  0  0  0  0  0  0
    3.1824   -0.3038   -2.2512 H   0  0  0  0  0  0  0  0  0  0  0  0
    2.6267   -1.9301   -0.4058 H   0  0  0  0  0  0  0  0  0  0  0  0
    5.1354   -2.5524    1.0800 H   0  0  0  0  0  0  0  0  0  0  0  0
    2.4158   -2.2841    1.7811 H   0  0  0  0  0  0  0  0  0  0  0  0
  2  1  1  1
  1 33  1  0
  1 34  1  0
  1 35  1  0
  2  8  1  0
  2 12  1  0
  2  3  1  0
  3  4  1  0
  3 36  1  0
  3 37  1  0
  4  5  1  0
  4 38  1  0
  4 39  1  0
  5  6  2  0
  5  7  1  0
  7  8  1  0
  7 40  1  0
  7 41  1  0
  8  9  2  0
  9 10  1  0
  9 42  1  0
 10 11  1  0
 10 43  1  0
 10 44  1  0
 11 17  1  0
 11 12  1  0
 11 45  1  6
 12 13  1  0
 12 46  1  1
 13 14  1  0
 13 47  1  0
 13 48  1  0
 14 15  1  0
 14 49  1  0
 14 50  1  0
 15 21  1  0
 15 16  1  6
 15 17  1  0
 16 51  1  0
 16 52  1  0
 16 53  1  0
 17 18  1  0
 17 54  1  6
 18 19  1  0
 18 55  1  0
 18 56  1  0
 19 20  1  0
 19 57  1  0
 19 58  1  0
 21 20  1  6
 21 31  1  0
 21 22  1  0
 22 23  1  0
 23 30  1  0
 23 24  1  0
 23 59  1  6
 24 25  1  0
 24 26  1  0
 24 60  1  1
 25 61  1  0
 26 27  1  0
 26 28  1  0
 26 62  1  6
 27 63  1  0
 28 29  1  0
 28 64  1  0
 28 65  1  0
 29 30  1  0
 30 31  1  0
 30 66  1  1
 31 32  1  0
 31 67  1  1
 32 68  1  0
M  END
>  <i_m_ct_stereo_status>  (255) 
1

>  <s_m_source_file>  (255) 
/var/tmp/pbs.5076255.sched01/tmp9n4xeji_/82rcfztp6i.sdf

>  <i_m_source_file_index>  (255) 
28

>  <i_lp_mmshare_version>  (255) 
48012

>  <i_f3d_flags>  (255) 
0

>  <s_epik_input>  (255) 
W0NIMl0xW0NIMl1DKD1PKVtDSDJdQyg9W0NIXVtDSDJdMilbQ0BAXTEoW0NIM10pW0NASF0oW0NIMl1bQ0gyXTMpW0NAQEhdMltDQEBIXShbQ0gyXVtDSDJdTzQpW0NAQF0zKFtDSDNdKVtDQEBdNDVPW0NASF02W0NAQEhdKFtDQEhdNVtPSF0pT1tDSDJdW0NASF0oW09IXSlbQ0BASF02W09IXQ==

>  <s_epik_cmdline>  (255) 
J2VwaWtfcHl0aG9uJywgJy1waHQnLCAnMi4wJywgJy1waCcsICc3LjAnLCAnLXRuJywgJzgnLCAnLW1hJywgJzIwMCcsICctaW1hZScsICc8aW5maWxlLm1hZT4nLCAnLW9tYWUnLCAnPG91dGZpbGUubWFlPic=

>  <r_lp_tautomer_probability>  (255) 
1

>  <r_epik_Ionization_Penalty>  (255) 
5.83387e-06

>  <r_epik_Ionization_Penalty_Charging>  (255) 
0

>  <r_epik_Ionization_Penalty_Neutral>  (255) 
5.83387e-06

>  <r_epik_State_Penalty>  (255) 
-0

>  <r_epik_Charging_Adjusted_Penalty>  (255) 
0

>  <i_epik_Tot_Q>  (255) 
0

>  <i_epik_Tot_abs_Q>  (255) 
0

>  <s_lp_Force_Field>  (255) 
OPLS3e

>  <r_lp_Energy>  (255) 
68.5282

>  <b_lp_Chiralities_Consistent>  (255) 
1

>  <s_lp_Variant>  (255) 
78:0-1

>  <s_i_glide_gridfile>  (255) 
pfpi4k_grid

>  <i_i_glide_lignum>  (255) 
28

>  <i_i_glide_rotatable_bonds>  (255) 
3

>  <r_i_docking_score>  (255) 
-3.2843

>  <r_i_glide_ligand_efficiency>  (255) 
-0.102634

>  <r_i_glide_ligand_efficiency_sa>  (255) 
-0.325844

>  <r_i_glide_ligand_efficiency_ln>  (255) 
-0.735444

>  <r_i_glide_gscore>  (255) 
-3.2843

>  <r_i_glide_lipo>  (255) 
-0.357029

>  <r_i_glide_hbond>  (255) 
0

>  <r_i_glide_metal>  (255) 
-0

>  <r_i_glide_rewards>  (255) 
-0.370107

>  <r_i_glide_evdw>  (255) 
-30.3264

>  <r_i_glide_ecoul>  (255) 
-6.76014

>  <r_i_glide_erotb>  (255) 
0

>  <r_i_glide_esite>  (255) 
-0.026824

>  <r_i_glide_emodel>  (255) 
-43.7997

>  <r_i_glide_energy>  (255) 
-37.0865

>  <r_i_glide_einternal>  (255) 
1.66287

>  <r_i_glide_intrahb_reward>  (255) 
-0

>  <i_i_glide_confnum>  (255) 
4

>  <i_i_glide_posenum>  (255) 
2

>  <r_i_glide_eff_state_penalty>  (255) 
0

>  <ligand_id>  (255) 
78

>  <original_smiles>  (255) 
CC12CCC(=O)CC1=CCC1C2CCC2(C)C1CCOC21OC2C(O)C(O)COC2C1O

>  <smiles>  (255) 
[H]OC1([H])C([H])([H])OC2([H])C([H])(OC3(OC([H])([H])C([H])([H])C4([H])C5([H])C([H])([H])C([H])=C6C([H])([H])C(=O)C([H])([H])C([H])([H])C6(C([H])([H])[H])C5([H])C([H])([H])C([H])([H])C34C([H])([H])[H])C2([H])O[H])C1([H])O[H]

$$$$
78:0:2
     RDKit          3D

 68 73  0  0  1  0  0  0  0  0999 V2000
    2.9396   -9.3972    4.8876 C   0  0  0  0  0  0  0  0  0  0  0  0
    2.6569   -7.9213    4.5024 C   0  0  2  0  0  0  0  0  0  0  0  0
    3.4909   -7.0269    5.4776 C   0  0  0  0  0  0  0  0  0  0  0  0
    3.0268   -7.0682    6.9431 C   0  0  0  0  0  0  0  0  0  0  0  0
    1.5277   -6.8488    7.0473 C   0  0  0  0  0  0  0  0  0  0  0  0
    1.0415   -6.0467    7.8441 O   0  0  0  0  0  0  0  0  0  0  0  0
    0.6454   -7.7081    6.1537 C   0  0  0  0  0  0  0  0  0  0  0  0
    1.1536   -7.6795    4.7138 C   0  0  0  0  0  0  0  0  0  0  0  0
    0.2709   -7.4795    3.7126 C   0  0  0  0  0  0  0  0  0  0  0  0
    0.6401   -7.4418    2.2501 C   0  0  0  0  0  0  0  0  0  0  0  0
    2.0940   -7.0246    2.0154 C   0  0  2  0  0  0  0  0  0  0  0  0
    3.0756   -7.7466    2.9820 C   0  0  1  0  0  0  0  0  0  0  0  0
    4.5285   -7.3130    2.6964 C   0  0  0  0  0  0  0  0  0  0  0  0
    4.7204   -5.7896    2.5533 C   0  0  0  0  0  0  0  0  0  0  0  0
    3.7960   -5.1441    1.4900 C   0  0  1  0  0  0  0  0  0  0  0  0
    4.1637   -5.7113    0.0989 C   0  0  0  0  0  0  0  0  0  0  0  0
    2.3064   -5.4892    1.8239 C   0  0  2  0  0  0  0  0  0  0  0  0
    1.7623   -4.6751    3.0130 C   0  0  0  0  0  0  0  0  0  0  0  0
    2.1240   -3.1967    2.9079 C   0  0  0  0  0  0  0  0  0  0  0  0
    3.5104   -3.0119    2.6455 O   0  0  0  0  0  0  0  0  0  0  0  0
    3.9708   -3.5552    1.4195 C   0  0  2  0  0  0  0  0  0  0  0  0
    3.2490   -3.0629    0.3035 O   0  0  0  0  0  0  0  0  0  0  0  0
    4.0184   -2.0549   -0.3706 C   0  0  2  0  0  0  0  0  0  0  0  0
    3.6570   -1.8034   -1.8506 C   0  0  1  0  0  0  0  0  0  0  0  0
    4.3619   -0.6544   -2.2711 O   0  0  0  0  0  0  0  0  0  0  0  0
    4.0755   -2.9755   -2.7423 C   0  0  1  0  0  0  0  0  0  0  0  0
    3.8171   -2.7006   -4.1133 O   0  0  0  0  0  0  0  0  0  0  0  0
    5.5600   -3.2983   -2.4894 C   0  0  0  0  0  0  0  0  0  0  0  0
    5.7914   -3.5938   -1.1144 O   0  0  0  0  0  0  0  0  0  0  0  0
    5.4759   -2.5305   -0.2165 C   0  0  2  0  0  0  0  0  0  0  0  0
    5.4487   -3.0320    1.2200 C   0  0  1  0  0  0  0  0  0  0  0  0
    5.7731   -1.9170    2.0255 O   0  0  0  0  0  0  0  0  0  0  0  0
    3.9899   -9.6582    4.7500 H   0  0  0  0  0  0  0  0  0  0  0  0
    2.3430  -10.0808    4.2811 H   0  0  0  0  0  0  0  0  0  0  0  0
    2.6831   -9.6149    5.9246 H   0  0  0  0  0  0  0  0  0  0  0  0
    4.5445   -7.3053    5.4589 H   0  0  0  0  0  0  0  0  0  0  0  0
    3.4651   -5.9853    5.1853 H   0  0  0  0  0  0  0  0  0  0  0  0
    3.2594   -8.0292    7.3953 H   0  0  0  0  0  0  0  0  0  0  0  0
    3.5561   -6.3180    7.5295 H   0  0  0  0  0  0  0  0  0  0  0  0
    0.6373   -8.7251    6.5434 H   0  0  0  0  0  0  0  0  0  0  0  0
   -0.3684   -7.3215    6.1842 H   0  0  0  0  0  0  0  0  0  0  0  0
   -0.7770   -7.3654    3.9290 H   0  0  0  0  0  0  0  0  0  0  0  0
    0.4839   -8.4485    1.8676 H   0  0  0  0  0  0  0  0  0  0  0  0
   -0.0434   -6.7841    1.7140 H   0  0  0  0  0  0  0  0  0  0  0  0
    2.3036   -7.4518    1.0350 H   0  0  0  0  0  0  0  0  0  0  0  0
    3.0490   -8.7675    2.6097 H   0  0  0  0  0  0  0  0  0  0  0  0
    5.2153   -7.7107    3.4413 H   0  0  0  0  0  0  0  0  0  0  0  0
    4.8531   -7.7896    1.7693 H   0  0  0  0  0  0  0  0  0  0  0  0
    4.6152   -5.2918    3.5161 H   0  0  0  0  0  0  0  0  0  0  0  0
    5.7672   -5.6719    2.2926 H   0  0  0  0  0  0  0  0  0  0  0  0
    3.5816   -5.2176   -0.6776 H   0  0  0  0  0  0  0  0  0  0  0  0
    3.9840   -6.7781   -0.0160 H   0  0  0  0  0  0  0  0  0  0  0  0
    5.2221   -5.5681   -0.0908 H   0  0  0  0  0  0  0  0  0  0  0  0
    1.7075   -5.1926    0.9615 H   0  0  0  0  0  0  0  0  0  0  0  0
    0.6775   -4.7525    3.0520 H   0  0  0  0  0  0  0  0  0  0  0  0
    2.1001   -5.0720    3.9594 H   0  0  0  0  0  0  0  0  0  0  0  0
    1.5097   -2.6903    2.1627 H   0  0  0  0  0  0  0  0  0  0  0  0
    1.8895   -2.7192    3.8579 H   0  0  0  0  0  0  0  0  0  0  0  0
    3.9068   -1.1270    0.2015 H   0  0  0  0  0  0  0  0  0  0  0  0
    2.5931   -1.6254   -1.9335 H   0  0  0  0  0  0  0  0  0  0  0  0
    3.9820    0.1013   -1.8553 H   0  0  0  0  0  0  0  0  0  0  0  0
    3.4659   -3.8471   -2.4920 H   0  0  0  0  0  0  0  0  0  0  0  0
    2.9138   -2.4500   -4.2160 H   0  0  0  0  0  0  0  0  0  0  0  0
    5.8208   -4.2008   -3.0298 H   0  0  0  0  0  0  0  0  0  0  0  0
    6.2188   -2.4929   -2.8403 H   0  0  0  0  0  0  0  0  0  0  0  0
    6.2036   -1.7145   -0.3738 H   0  0  0  0  0  0  0  0  0  0  0  0
    6.1913   -3.8004    1.4056 H   0  0  0  0  0  0  0  0  0  0  0  0
    5.0411   -1.3126    2.0236 H   0  0  0  0  0  0  0  0  0  0  0  0
  2  1  1  1
  1 33  1  0
  1 34  1  0
  1 35  1  0
  2  8  1  0
  2 12  1  0
  2  3  1  0
  3  4  1  0
  3 36  1  0
  3 37  1  0
  4  5  1  0
  4 38  1  0
  4 39  1  0
  5  6  2  0
  5  7  1  0
  7  8  1  0
  7 40  1  0
  7 41  1  0
  8  9  2  0
  9 10  1  0
  9 42  1  0
 10 11  1  0
 10 43  1  0
 10 44  1  0
 11 17  1  0
 11 12  1  0
 11 45  1  6
 12 13  1  0
 12 46  1  6
 13 14  1  0
 13 47  1  0
 13 48  1  0
 14 15  1  0
 14 49  1  0
 14 50  1  0
 15 21  1  0
 15 16  1  6
 15 17  1  0
 16 51  1  0
 16 52  1  0
 16 53  1  0
 17 18  1  0
 17 54  1  6
 18 19  1  0
 18 55  1  0
 18 56  1  0
 19 20  1  0
 19 57  1  0
 19 58  1  0
 21 20  1  1
 21 31  1  0
 21 22  1  0
 22 23  1  0
 23 30  1  0
 23 24  1  0
 23 59  1  1
 24 25  1  0
 24 26  1  0
 24 60  1  1
 25 61  1  0
 26 27  1  0
 26 28  1  0
 26 62  1  1
 27 63  1  0
 28 29  1  0
 28 64  1  0
 28 65  1  0
 29 30  1  0
 30 31  1  0
 30 66  1  1
 31 32  1  0
 31 67  1  6
 32 68  1  0
M  END
>  <i_m_ct_stereo_status>  (256) 
1

>  <s_m_source_file>  (256) 
/var/tmp/pbs.5076255.sched01/tmp9n4xeji_/82rcfztp6i.sdf

>  <i_m_source_file_index>  (256) 
28

>  <i_lp_mmshare_version>  (256) 
48012

>  <i_f3d_flags>  (256) 
0

>  <s_epik_input>  (256) 
W0NIMl0xW0NIMl1DKD1PKVtDSDJdQyg9W0NIXVtDSDJdMilbQ0BAXTEoW0NIM10pW0NASF0oW0NIMl1bQ0gyXTMpW0NAQEhdMltDQEBIXShbQ0gyXVtDSDJdTzQpW0NAQF0zKFtDSDNdKVtDQEBdNDVPW0NASF02W0NAQEhdKFtDQEhdNVtPSF0pT1tDSDJdW0NASF0oW09IXSlbQ0BASF02W09IXQ==

>  <s_epik_cmdline>  (256) 
J2VwaWtfcHl0aG9uJywgJy1waHQnLCAnMi4wJywgJy1waCcsICc3LjAnLCAnLXRuJywgJzgnLCAnLW1hJywgJzIwMCcsICctaW1hZScsICc8aW5maWxlLm1hZT4nLCAnLW9tYWUnLCAnPG91dGZpbGUubWFlPic=

>  <r_lp_tautomer_probability>  (256) 
1

>  <r_epik_Ionization_Penalty>  (256) 
5.83387e-06

>  <r_epik_Ionization_Penalty_Charging>  (256) 
0

>  <r_epik_Ionization_Penalty_Neutral>  (256) 
5.83387e-06

>  <r_epik_State_Penalty>  (256) 
-0

>  <r_epik_Charging_Adjusted_Penalty>  (256) 
0

>  <i_epik_Tot_Q>  (256) 
0

>  <i_epik_Tot_abs_Q>  (256) 
0

>  <s_lp_Force_Field>  (256) 
OPLS3e

>  <r_lp_Energy>  (256) 
68.5282

>  <b_lp_Chiralities_Consistent>  (256) 
1

>  <s_lp_Variant>  (256) 
78:0-1

>  <s_i_glide_gridfile>  (256) 
pfpi4k_grid

>  <i_i_glide_lignum>  (256) 
28

>  <i_i_glide_rotatable_bonds>  (256) 
3

>  <r_i_docking_score>  (256) 
-3.15044

>  <r_i_glide_ligand_efficiency>  (256) 
-0.0984512

>  <r_i_glide_ligand_efficiency_sa>  (256) 
-0.312563

>  <r_i_glide_ligand_efficiency_ln>  (256) 
-0.705469

>  <r_i_glide_gscore>  (256) 
-3.15044

>  <r_i_glide_lipo>  (256) 
-0.321743

>  <r_i_glide_hbond>  (256) 
0

>  <r_i_glide_metal>  (256) 
-0

>  <r_i_glide_rewards>  (256) 
-0.362657

>  <r_i_glide_evdw>  (256) 
-31.5038

>  <r_i_glide_ecoul>  (256) 
-5.92585

>  <r_i_glide_erotb>  (256) 
0

>  <r_i_glide_esite>  (256) 
-0.0019708

>  <r_i_glide_emodel>  (256) 
-43.7261

>  <r_i_glide_energy>  (256) 
-37.4297

>  <r_i_glide_einternal>  (256) 
0.701017

>  <r_i_glide_intrahb_reward>  (256) 
-0

>  <i_i_glide_confnum>  (256) 
1

>  <i_i_glide_posenum>  (256) 
6

>  <r_i_glide_eff_state_penalty>  (256) 
0

>  <ligand_id>  (256) 
78

>  <original_smiles>  (256) 
CC12CCC(=O)CC1=CCC1C2CCC2(C)C1CCOC21OC2C(O)C(O)COC2C1O

>  <smiles>  (256) 
[H]OC1([H])C([H])([H])OC2([H])C([H])(OC3(OC([H])([H])C([H])([H])C4([H])C5([H])C([H])([H])C([H])=C6C([H])([H])C(=O)C([H])([H])C([H])([H])C6(C([H])([H])[H])C5([H])C([H])([H])C([H])([H])C34C([H])([H])[H])C2([H])O[H])C1([H])O[H]

$$$$
79:0:0
     RDKit          3D

 65 69  0  0  1  0  0  0  0  0999 V2000
    0.2400  -10.2829    2.8831 C   0  0  0  0  0  0  0  0  0  0  0  0
    1.1783   -9.4154    3.2791 C   0  0  0  0  0  0  0  0  0  0  0  0
    1.3165   -8.8633    4.6779 C   0  0  2  0  0  0  0  0  0  0  0  0
    2.1742   -7.6136    4.4548 C   0  0  0  0  0  0  0  0  0  0  0  0
    3.2196   -8.0694    3.4039 C   0  0  2  0  0  0  0  0  0  0  0  0
    2.2432   -8.7815    2.4159 C   0  0  1  0  0  0  0  0  0  0  0  0
    2.8262   -9.6672    1.4846 O   0  0  0  0  0  0  0  0  0  0  0  0
    4.1850   -9.1286    4.0890 C   0  0  2  0  0  0  0  0  0  0  0  0
    3.4556  -10.2283    4.9487 C   0  0  0  0  0  0  0  0  0  0  0  0
    2.0846   -9.8617    5.5614 C   0  0  1  0  0  0  0  0  0  0  0  0
    2.2275   -9.3724    6.8816 O   0  0  0  0  0  0  0  0  0  0  0  0
    5.4875   -8.5171    4.7092 C   0  0  1  0  0  0  0  0  0  0  0  0
    5.2045   -7.6926    5.9927 C   0  0  0  0  0  0  0  0  0  0  0  0
    6.2550   -9.5943    5.2259 O   0  0  0  0  0  0  0  0  0  0  0  0
    6.3683   -7.7892    3.5910 C   0  0  0  0  0  0  0  0  0  0  0  0
    7.2125   -6.6433    4.2039 C   0  0  0  0  0  0  0  0  0  0  0  0
    7.3977   -8.7690    2.9538 C   0  0  0  0  0  0  0  0  0  0  0  0
    5.4589   -7.2949    2.4060 C   0  0  2  0  0  0  0  0  0  0  0  0
    6.0147   -6.2529    1.3959 C   0  0  0  0  0  0  0  0  0  0  0  0
    4.7949   -5.5103    0.7984 C   0  0  2  0  0  0  0  0  0  0  0  0
    4.8215   -3.9933    1.1389 C   0  0  1  0  0  0  0  0  0  0  0  0
    5.7927   -3.1985    0.2435 C   0  0  0  0  0  0  0  0  0  0  0  0
    3.4255   -3.3666    1.0798 C   0  0  0  0  0  0  0  0  0  0  0  0
    2.5166   -4.1423    1.8416 O   0  0  0  0  0  0  0  0  0  0  0  0
    2.2887   -5.4363    1.3683 C   0  0  1  0  0  0  0  0  0  0  0  0
    1.7189   -5.4587    0.0796 O   0  0  0  0  0  0  0  0  0  0  0  0
    3.5876   -6.2831    1.3865 C   0  0  2  0  0  0  0  0  0  0  0  0
    4.0254   -6.8533    2.7683 C   0  0  1  0  0  0  0  0  0  0  0  0
    4.1070   -5.7692    3.6772 O   0  0  0  0  0  0  0  0  0  0  0  0
    0.1934  -10.6354    1.8646 H   0  0  0  0  0  0  0  0  0  0  0  0
   -0.4888  -10.6470    3.5930 H   0  0  0  0  0  0  0  0  0  0  0  0
    0.3384   -8.6352    5.1085 H   0  0  0  0  0  0  0  0  0  0  0  0
    1.5431   -6.8221    4.0531 H   0  0  0  0  0  0  0  0  0  0  0  0
    2.5978   -7.2382    5.3848 H   0  0  0  0  0  0  0  0  0  0  0  0
    1.6780   -8.0595    1.8328 H   0  0  0  0  0  0  0  0  0  0  0  0
    3.1687  -10.4328    1.9208 H   0  0  0  0  0  0  0  0  0  0  0  0
    4.5995   -9.7290    3.2803 H   0  0  0  0  0  0  0  0  0  0  0  0
    3.2681  -11.0745    4.2845 H   0  0  0  0  0  0  0  0  0  0  0  0
    4.0791  -10.6503    5.7355 H   0  0  0  0  0  0  0  0  0  0  0  0
    1.4942  -10.7763    5.6671 H   0  0  0  0  0  0  0  0  0  0  0  0
    2.1887  -10.1200    7.4643 H   0  0  0  0  0  0  0  0  0  0  0  0
    4.7125   -6.7453    5.8179 H   0  0  0  0  0  0  0  0  0  0  0  0
    6.1177   -7.4631    6.5384 H   0  0  0  0  0  0  0  0  0  0  0  0
    4.5719   -8.2435    6.6839 H   0  0  0  0  0  0  0  0  0  0  0  0
    5.7461  -10.0317    5.8887 H   0  0  0  0  0  0  0  0  0  0  0  0
    7.9460   -6.2588    3.4963 H   0  0  0  0  0  0  0  0  0  0  0  0
    7.7857   -6.9962    5.0631 H   0  0  0  0  0  0  0  0  0  0  0  0
    6.5982   -5.8047    4.5288 H   0  0  0  0  0  0  0  0  0  0  0  0
    7.9158   -8.3107    2.1103 H   0  0  0  0  0  0  0  0  0  0  0  0
    6.9211   -9.6829    2.5915 H   0  0  0  0  0  0  0  0  0  0  0  0
    8.1710   -9.0710    3.6652 H   0  0  0  0  0  0  0  0  0  0  0  0
    5.3019   -8.1777    1.7818 H   0  0  0  0  0  0  0  0  0  0  0  0
    6.6889   -5.5368    1.8650 H   0  0  0  0  0  0  0  0  0  0  0  0
    6.5918   -6.7451    0.6134 H   0  0  0  0  0  0  0  0  0  0  0  0
    4.7736   -5.6224   -0.2870 H   0  0  0  0  0  0  0  0  0  0  0  0
    5.1558   -3.8784    2.1688 H   0  0  0  0  0  0  0  0  0  0  0  0
    5.4806   -3.2295   -0.8025 H   0  0  0  0  0  0  0  0  0  0  0  0
    6.8122   -3.5828    0.3014 H   0  0  0  0  0  0  0  0  0  0  0  0
    5.8166   -2.1483    0.5413 H   0  0  0  0  0  0  0  0  0  0  0  0
    3.4558   -2.3658    1.5090 H   0  0  0  0  0  0  0  0  0  0  0  0
    3.0736   -3.2421    0.0582 H   0  0  0  0  0  0  0  0  0  0  0  0
    1.5388   -5.8565    2.0335 H   0  0  0  0  0  0  0  0  0  0  0  0
    2.4055   -5.2890   -0.5539 H   0  0  0  0  0  0  0  0  0  0  0  0
    3.4251   -7.1375    0.7261 H   0  0  0  0  0  0  0  0  0  0  0  0
    4.5033   -6.0833    4.4715 H   0  0  0  0  0  0  0  0  0  0  0  0
  1  2  2  0
  1 30  1  0
  1 31  1  0
  2  6  1  0
  2  3  1  0
  3 10  1  0
  3  4  1  0
  3 32  1  1
  5  4  1  1
  4 33  1  0
  4 34  1  0
  5 28  1  0
  5  6  1  0
  5  8  1  0
  6  7  1  0
  6 35  1  6
  7 36  1  0
  8  9  1  0
  8 12  1  0
  8 37  1  6
  9 10  1  0
  9 38  1  0
  9 39  1  0
 10 11  1  0
 10 40  1  1
 11 41  1  0
 12 13  1  0
 12 14  1  1
 12 15  1  0
 13 42  1  0
 13 43  1  0
 13 44  1  0
 14 45  1  0
 15 16  1  0
 15 17  1  0
 15 18  1  0
 16 46  1  0
 16 47  1  0
 16 48  1  0
 17 49  1  0
 17 50  1  0
 17 51  1  0
 18 28  1  0
 18 19  1  0
 18 52  1  6
 19 20  1  0
 19 53  1  0
 19 54  1  0
 20 27  1  0
 20 21  1  0
 20 55  1  6
 21 22  1  0
 21 23  1  0
 21 56  1  1
 22 57  1  0
 22 58  1  0
 22 59  1  0
 23 24  1  0
 23 60  1  0
 23 61  1  0
 24 25  1  0
 25 26  1  0
 25 27  1  0
 25 62  1  1
 26 63  1  0
 27 28  1  0
 27 64  1  6
 28 29  1  1
 29 65  1  0
M  END
>  <i_m_ct_stereo_status>  (257) 
1

>  <s_m_source_file>  (257) 
/var/tmp/pbs.5076255.sched01/tmp9n4xeji_/82rcfztp6i.sdf

>  <i_m_source_file_index>  (257) 
29

>  <i_lp_mmshare_version>  (257) 
48012

>  <i_f3d_flags>  (257) 
0

>  <s_epik_input>  (257) 
W09IXVtDQEhdMUMoPVtDSDJdKVtDQEhdKFtDSDJdMilbQ0BIXShbT0hdKVtDSDJdW0NAQEhdKFtDQEBdMTIzKVtDQEBdKFtDSDNdKShbT0hdKUMoW0NIM10pKFtDSDNdKVtDQEhdNFtDQEBdMyhbT0hdKVtDQEBIXTVbQ0BIXShbQ0gyXTQpW0NAQEhdKFtDSDNdKVtDSDJdT1tDQEhdNVtPSF0=

>  <s_epik_cmdline>  (257) 
J2VwaWtfcHl0aG9uJywgJy1waHQnLCAnMi4wJywgJy1waCcsICc3LjAnLCAnLXRuJywgJzgnLCAnLW1hJywgJzIwMCcsICctaW1hZScsICc8aW5maWxlLm1hZT4nLCAnLW9tYWUnLCAnPG91dGZpbGUubWFlPic=

>  <r_lp_tautomer_probability>  (257) 
1

>  <r_epik_Ionization_Penalty>  (257) 
1.57606e-06

>  <r_epik_Ionization_Penalty_Charging>  (257) 
0

>  <r_epik_Ionization_Penalty_Neutral>  (257) 
1.57606e-06

>  <r_epik_State_Penalty>  (257) 
-0

>  <r_epik_Charging_Adjusted_Penalty>  (257) 
0

>  <i_epik_Tot_Q>  (257) 
0

>  <i_epik_Tot_abs_Q>  (257) 
0

>  <s_epik_Chemistry_Notes>  (257) 
This compound contains an acetal/aminal-like group ( X-CH(R)-Y where X, Y are N, S, or O) that may be acid/base labile, releasing an aldehyde.

>  <s_lp_Force_Field>  (257) 
OPLS3e

>  <r_lp_Energy>  (257) 
76.112

>  <b_lp_Chiralities_Consistent>  (257) 
1

>  <s_lp_Variant>  (257) 
79:0-1

>  <s_i_glide_gridfile>  (257) 
pfpi4k_grid

>  <i_i_glide_lignum>  (257) 
29

>  <i_i_glide_rotatable_bonds>  (257) 
5

>  <r_i_docking_score>  (257) 
-3.29335

>  <r_i_glide_ligand_efficiency>  (257) 
-0.113564

>  <r_i_glide_ligand_efficiency_sa>  (257) 
-0.348904

>  <r_i_glide_ligand_efficiency_ln>  (257) 
-0.754094

>  <r_i_glide_gscore>  (257) 
-3.29335

>  <r_i_glide_lipo>  (257) 
-0.42577

>  <r_i_glide_hbond>  (257) 
-0.0151854

>  <r_i_glide_metal>  (257) 
-0

>  <r_i_glide_rewards>  (257) 
-0.62367

>  <r_i_glide_evdw>  (257) 
-23.6146

>  <r_i_glide_ecoul>  (257) 
-6.76504

>  <r_i_glide_erotb>  (257) 
0

>  <r_i_glide_esite>  (257) 
-0.0332399

>  <r_i_glide_emodel>  (257) 
-36.5971

>  <r_i_glide_energy>  (257) 
-30.3796

>  <r_i_glide_einternal>  (257) 
1.06426

>  <r_i_glide_intrahb_reward>  (257) 
-0

>  <i_i_glide_confnum>  (257) 
1

>  <i_i_glide_posenum>  (257) 
35

>  <r_i_glide_eff_state_penalty>  (257) 
0

>  <ligand_id>  (257) 
79

>  <original_smiles>  (257) 
C=C1C2CC3(C1O)C(CC2O)C(C)(O)C(C)(C)C1CC2C(C)COC(O)C2C13O

>  <smiles>  (257) 
[H]OC1([H])OC([H])([H])C([H])(C([H])([H])[H])C2([H])C([H])([H])C3([H])C(O[H])(C12[H])C12C([H])(O[H])C(=C([H])[H])C([H])(C1([H])[H])C([H])(O[H])C([H])([H])C2([H])C(O[H])(C([H])([H])[H])C3(C([H])([H])[H])C([H])([H])[H]

$$$$
79:0:1
     RDKit          3D

 65 69  0  0  1  0  0  0  0  0999 V2000
    0.6935  -10.2260    2.8856 C   0  0  0  0  0  0  0  0  0  0  0  0
    1.5651   -9.2483    3.1786 C   0  0  0  0  0  0  0  0  0  0  0  0
    1.7152   -8.5931    4.5328 C   0  0  2  0  0  0  0  0  0  0  0  0
    2.4454   -7.2852    4.1918 C   0  0  0  0  0  0  0  0  0  0  0  0
    3.4843   -7.7159    3.1233 C   0  0  2  0  0  0  0  0  0  0  0  0
    2.5296   -8.5706    2.2265 C   0  0  1  0  0  0  0  0  0  0  0  0
    3.1512   -9.4536    1.3169 O   0  0  0  0  0  0  0  0  0  0  0  0
    4.5713   -8.6337    3.8257 C   0  0  2  0  0  0  0  0  0  0  0  0
    3.9806   -9.7325    4.7852 C   0  0  0  0  0  0  0  0  0  0  0  0
    2.6103   -9.4493    5.4451 C   0  0  1  0  0  0  0  0  0  0  0  0
    2.7581   -8.8370    6.7139 O   0  0  0  0  0  0  0  0  0  0  0  0
    5.8405   -7.8732    4.3438 C   0  0  1  0  0  0  0  0  0  0  0  0
    5.5389   -6.9951    5.5874 C   0  0  0  0  0  0  0  0  0  0  0  0
    6.7247   -8.8327    4.9008 O   0  0  0  0  0  0  0  0  0  0  0  0
    6.6057   -7.1486    3.1424 C   0  0  0  0  0  0  0  0  0  0  0  0
    7.3614   -5.9001    3.6488 C   0  0  0  0  0  0  0  0  0  0  0  0
    7.6925   -8.0737    2.5206 C   0  0  0  0  0  0  0  0  0  0  0  0
    5.6073   -6.8069    1.9773 C   0  0  2  0  0  0  0  0  0  0  0  0
    6.0251   -5.7807    0.8859 C   0  0  0  0  0  0  0  0  0  0  0  0
    4.7168   -5.1971    0.3006 C   0  0  2  0  0  0  0  0  0  0  0  0
    4.6237   -3.6637    0.5473 C   0  0  1  0  0  0  0  0  0  0  0  0
    5.4802   -2.8482   -0.4419 C   0  0  0  0  0  0  0  0  0  0  0  0
    3.1758   -3.1722    0.5200 C   0  0  0  0  0  0  0  0  0  0  0  0
    2.3900   -3.9796    1.3802 O   0  0  0  0  0  0  0  0  0  0  0  0
    2.2394   -5.3122    0.9817 C   0  0  1  0  0  0  0  0  0  0  0  0
    1.5962   -5.4538   -0.2709 O   0  0  0  0  0  0  0  0  0  0  0  0
    3.6116   -6.0391    0.9877 C   0  0  2  0  0  0  0  0  0  0  0  0
    4.1539   -6.4769    2.3834 C   0  0  1  0  0  0  0  0  0  0  0  0
    4.1742   -5.3361    3.2279 O   0  0  0  0  0  0  0  0  0  0  0  0
    0.6222  -10.6257    1.8861 H   0  0  0  0  0  0  0  0  0  0  0  0
    0.0387  -10.6291    3.6460 H   0  0  0  0  0  0  0  0  0  0  0  0
    0.7402   -8.4194    4.9905 H   0  0  0  0  0  0  0  0  0  0  0  0
    1.7256   -6.5834    3.7715 H   0  0  0  0  0  0  0  0  0  0  0  0
    2.8751   -6.8083    5.0686 H   0  0  0  0  0  0  0  0  0  0  0  0
    1.8788   -7.9382    1.6286 H   0  0  0  0  0  0  0  0  0  0  0  0
    3.4618  -10.2266    1.7690 H   0  0  0  0  0  0  0  0  0  0  0  0
    5.0062   -9.2477    3.0386 H   0  0  0  0  0  0  0  0  0  0  0  0
    3.8487  -10.6350    4.1821 H   0  0  0  0  0  0  0  0  0  0  0  0
    4.6817  -10.0334    5.5632 H   0  0  0  0  0  0  0  0  0  0  0  0
    2.1164  -10.4082    5.6364 H   0  0  0  0  0  0  0  0  0  0  0  0
    3.2430   -8.0329    6.6134 H   0  0  0  0  0  0  0  0  0  0  0  0
    4.9565   -6.1128    5.3632 H   0  0  0  0  0  0  0  0  0  0  0  0
    6.4433   -6.6399    6.0764 H   0  0  0  0  0  0  0  0  0  0  0  0
    4.9935   -7.5547    6.3417 H   0  0  0  0  0  0  0  0  0  0  0  0
    7.4737   -8.3677    5.2430 H   0  0  0  0  0  0  0  0  0  0  0  0
    8.0238   -5.4960    2.8850 H   0  0  0  0  0  0  0  0  0  0  0  0
    8.0012   -6.1364    4.5014 H   0  0  0  0  0  0  0  0  0  0  0  0
    6.6714   -5.1108    3.9472 H   0  0  0  0  0  0  0  0  0  0  0  0
    8.1321   -7.6316    1.6267 H   0  0  0  0  0  0  0  0  0  0  0  0
    7.2822   -9.0464    2.2409 H   0  0  0  0  0  0  0  0  0  0  0  0
    8.5227   -8.2570    3.2065 H   0  0  0  0  0  0  0  0  0  0  0  0
    5.5042   -7.7355    1.4163 H   0  0  0  0  0  0  0  0  0  0  0  0
    6.6393   -4.9756    1.2904 H   0  0  0  0  0  0  0  0  0  0  0  0
    6.6176   -6.2560    0.1030 H   0  0  0  0  0  0  0  0  0  0  0  0
    4.6648   -5.3789   -0.7713 H   0  0  0  0  0  0  0  0  0  0  0  0
    4.9866   -3.4528    1.5503 H   0  0  0  0  0  0  0  0  0  0  0  0
    5.1286   -2.9737   -1.4683 H   0  0  0  0  0  0  0  0  0  0  0  0
    6.5327   -3.1384   -0.4086 H   0  0  0  0  0  0  0  0  0  0  0  0
    5.4217   -1.7810   -0.2099 H   0  0  0  0  0  0  0  0  0  0  0  0
    3.1291   -2.1450    0.8809 H   0  0  0  0  0  0  0  0  0  0  0  0
    2.7663   -3.1487   -0.4869 H   0  0  0  0  0  0  0  0  0  0  0  0
    1.5585   -5.7551    1.6998 H   0  0  0  0  0  0  0  0  0  0  0  0
    2.2447   -5.3663   -0.9585 H   0  0  0  0  0  0  0  0  0  0  0  0
    3.5031   -6.9469    0.3903 H   0  0  0  0  0  0  0  0  0  0  0  0
    3.2800   -5.0808    3.4007 H   0  0  0  0  0  0  0  0  0  0  0  0
  1  2  2  0
  1 30  1  0
  1 31  1  0
  2  6  1  0
  2  3  1  0
  3 10  1  0
  3  4  1  0
  3 32  1  1
  5  4  1  1
  4 33  1  0
  4 34  1  0
  5 28  1  0
  5  6  1  0
  5  8  1  0
  6  7  1  0
  6 35  1  6
  7 36  1  0
  8  9  1  0
  8 12  1  0
  8 37  1  6
  9 10  1  0
  9 38  1  0
  9 39  1  0
 10 11  1  0
 10 40  1  1
 11 41  1  0
 12 13  1  0
 12 14  1  1
 12 15  1  0
 13 42  1  0
 13 43  1  0
 13 44  1  0
 14 45  1  0
 15 16  1  0
 15 17  1  0
 15 18  1  0
 16 46  1  0
 16 47  1  0
 16 48  1  0
 17 49  1  0
 17 50  1  0
 17 51  1  0
 18 28  1  0
 18 19  1  0
 18 52  1  6
 19 20  1  0
 19 53  1  0
 19 54  1  0
 20 27  1  0
 20 21  1  0
 20 55  1  6
 21 22  1  0
 21 23  1  0
 21 56  1  1
 22 57  1  0
 22 58  1  0
 22 59  1  0
 23 24  1  0
 23 60  1  0
 23 61  1  0
 24 25  1  0
 25 26  1  0
 25 27  1  0
 25 62  1  1
 26 63  1  0
 27 28  1  0
 27 64  1  6
 28 29  1  1
 29 65  1  0
M  END
>  <i_m_ct_stereo_status>  (258) 
1

>  <s_m_source_file>  (258) 
/var/tmp/pbs.5076255.sched01/tmp9n4xeji_/82rcfztp6i.sdf

>  <i_m_source_file_index>  (258) 
29

>  <i_lp_mmshare_version>  (258) 
48012

>  <i_f3d_flags>  (258) 
0

>  <s_epik_input>  (258) 
W09IXVtDQEhdMUMoPVtDSDJdKVtDQEhdKFtDSDJdMilbQ0BIXShbT0hdKVtDSDJdW0NAQEhdKFtDQEBdMTIzKVtDQEBdKFtDSDNdKShbT0hdKUMoW0NIM10pKFtDSDNdKVtDQEhdNFtDQEBdMyhbT0hdKVtDQEBIXTVbQ0BIXShbQ0gyXTQpW0NAQEhdKFtDSDNdKVtDSDJdT1tDQEhdNVtPSF0=

>  <s_epik_cmdline>  (258) 
J2VwaWtfcHl0aG9uJywgJy1waHQnLCAnMi4wJywgJy1waCcsICc3LjAnLCAnLXRuJywgJzgnLCAnLW1hJywgJzIwMCcsICctaW1hZScsICc8aW5maWxlLm1hZT4nLCAnLW9tYWUnLCAnPG91dGZpbGUubWFlPic=

>  <r_lp_tautomer_probability>  (258) 
1

>  <r_epik_Ionization_Penalty>  (258) 
1.57606e-06

>  <r_epik_Ionization_Penalty_Charging>  (258) 
0

>  <r_epik_Ionization_Penalty_Neutral>  (258) 
1.57606e-06

>  <r_epik_State_Penalty>  (258) 
-0

>  <r_epik_Charging_Adjusted_Penalty>  (258) 
0

>  <i_epik_Tot_Q>  (258) 
0

>  <i_epik_Tot_abs_Q>  (258) 
0

>  <s_epik_Chemistry_Notes>  (258) 
This compound contains an acetal/aminal-like group ( X-CH(R)-Y where X, Y are N, S, or O) that may be acid/base labile, releasing an aldehyde.

>  <s_lp_Force_Field>  (258) 
OPLS3e

>  <r_lp_Energy>  (258) 
76.112

>  <b_lp_Chiralities_Consistent>  (258) 
1

>  <s_lp_Variant>  (258) 
79:0-1

>  <s_i_glide_gridfile>  (258) 
pfpi4k_grid

>  <i_i_glide_lignum>  (258) 
29

>  <i_i_glide_rotatable_bonds>  (258) 
5

>  <r_i_docking_score>  (258) 
-3.12394

>  <r_i_glide_ligand_efficiency>  (258) 
-0.107722

>  <r_i_glide_ligand_efficiency_sa>  (258) 
-0.330956

>  <r_i_glide_ligand_efficiency_ln>  (258) 
-0.715303

>  <r_i_glide_gscore>  (258) 
-3.12394

>  <r_i_glide_lipo>  (258) 
-0.383116

>  <r_i_glide_hbond>  (258) 
0

>  <r_i_glide_metal>  (258) 
-0

>  <r_i_glide_rewards>  (258) 
-0.62367

>  <r_i_glide_evdw>  (258) 
-23.1641

>  <r_i_glide_ecoul>  (258) 
-6.082

>  <r_i_glide_erotb>  (258) 
0

>  <r_i_glide_esite>  (258) 
-0.0466463

>  <r_i_glide_emodel>  (258) 
-35.4337

>  <r_i_glide_energy>  (258) 
-29.2461

>  <r_i_glide_einternal>  (258) 
0.530872

>  <r_i_glide_intrahb_reward>  (258) 
-0

>  <i_i_glide_confnum>  (258) 
1

>  <i_i_glide_posenum>  (258) 
4

>  <r_i_glide_eff_state_penalty>  (258) 
0

>  <ligand_id>  (258) 
79

>  <original_smiles>  (258) 
C=C1C2CC3(C1O)C(CC2O)C(C)(O)C(C)(C)C1CC2C(C)COC(O)C2C13O

>  <smiles>  (258) 
[H]OC1([H])OC([H])([H])C([H])(C([H])([H])[H])C2([H])C([H])([H])C3([H])C(O[H])(C12[H])C12C([H])(O[H])C(=C([H])[H])C([H])(C1([H])[H])C([H])(O[H])C([H])([H])C2([H])C(O[H])(C([H])([H])[H])C3(C([H])([H])[H])C([H])([H])[H]

$$$$
79:0:2
     RDKit          3D

 65 69  0  0  1  0  0  0  0  0999 V2000
    0.6895  -10.2254    2.8849 C   0  0  0  0  0  0  0  0  0  0  0  0
    1.5594   -9.2468    3.1790 C   0  0  0  0  0  0  0  0  0  0  0  0
    1.7083   -8.5934    4.5328 C   0  0  2  0  0  0  0  0  0  0  0  0
    2.4416   -7.2875    4.1924 C   0  0  0  0  0  0  0  0  0  0  0  0
    3.4808   -7.7191    3.1235 C   0  0  2  0  0  0  0  0  0  0  0  0
    2.5237   -8.5709    2.2261 C   0  0  1  0  0  0  0  0  0  0  0  0
    3.1418   -9.4546    1.3150 O   0  0  0  0  0  0  0  0  0  0  0  0
    4.5654   -8.6410    3.8260 C   0  0  2  0  0  0  0  0  0  0  0  0
    3.9709   -9.7399    4.7824 C   0  0  0  0  0  0  0  0  0  0  0  0
    2.6017   -9.4532    5.4436 C   0  0  1  0  0  0  0  0  0  0  0  0
    2.7507   -8.8402    6.7131 O   0  0  0  0  0  0  0  0  0  0  0  0
    5.8376   -7.8852    4.3478 C   0  0  1  0  0  0  0  0  0  0  0  0
    5.5349   -7.0031    5.5858 C   0  0  0  0  0  0  0  0  0  0  0  0
    6.7165   -8.8439    4.9235 O   0  0  0  0  0  0  0  0  0  0  0  0
    6.6008   -7.1623    3.1442 C   0  0  0  0  0  0  0  0  0  0  0  0
    7.3587   -5.9144    3.6478 C   0  0  0  0  0  0  0  0  0  0  0  0
    7.6843   -8.0904    2.5245 C   0  0  0  0  0  0  0  0  0  0  0  0
    5.6033   -6.8152    1.9788 C   0  0  2  0  0  0  0  0  0  0  0  0
    6.0222   -5.7855    0.8883 C   0  0  0  0  0  0  0  0  0  0  0  0
    4.7159   -5.2002    0.3021 C   0  0  2  0  0  0  0  0  0  0  0  0
    4.6275   -3.6692    0.5491 C   0  0  1  0  0  0  0  0  0  0  0  0
    5.4861   -2.8542   -0.4381 C   0  0  0  0  0  0  0  0  0  0  0  0
    3.1807   -3.1734    0.5224 C   0  0  0  0  0  0  0  0  0  0  0  0
    2.3922   -3.9802    1.3813 O   0  0  0  0  0  0  0  0  0  0  0  0
    2.2394   -5.3120    0.9841 C   0  0  1  0  0  0  0  0  0  0  0  0
    1.5938   -5.4540   -0.2681 O   0  0  0  0  0  0  0  0  0  0  0  0
    3.6099   -6.0414    0.9891 C   0  0  2  0  0  0  0  0  0  0  0  0
    4.1519   -6.4816    2.3840 C   0  0  1  0  0  0  0  0  0  0  0  0
    4.1736   -5.3419    3.2265 O   0  0  0  0  0  0  0  0  0  0  0  0
    0.6214  -10.6242    1.8858 H   0  0  0  0  0  0  0  0  0  0  0  0
    0.0304  -10.6292    3.6430 H   0  0  0  0  0  0  0  0  0  0  0  0
    0.7334   -8.4186    4.9906 H   0  0  0  0  0  0  0  0  0  0  0  0
    1.7220   -6.5838    3.7747 H   0  0  0  0  0  0  0  0  0  0  0  0
    2.8753   -6.8105    5.0691 H   0  0  0  0  0  0  0  0  0  0  0  0
    1.8711   -7.9373    1.6300 H   0  0  0  0  0  0  0  0  0  0  0  0
    3.4444  -10.2339    1.7636 H   0  0  0  0  0  0  0  0  0  0  0  0
    4.9913   -9.2548    3.0357 H   0  0  0  0  0  0  0  0  0  0  0  0
    3.8378  -10.6415    4.1807 H   0  0  0  0  0  0  0  0  0  0  0  0
    4.6675  -10.0394    5.5654 H   0  0  0  0  0  0  0  0  0  0  0  0
    2.1063  -10.4108    5.6364 H   0  0  0  0  0  0  0  0  0  0  0  0
    3.2161   -8.0255    6.6112 H   0  0  0  0  0  0  0  0  0  0  0  0
    4.9585   -6.1155    5.3622 H   0  0  0  0  0  0  0  0  0  0  0  0
    6.4451   -6.6581    6.0719 H   0  0  0  0  0  0  0  0  0  0  0  0
    4.9875   -7.5611    6.3407 H   0  0  0  0  0  0  0  0  0  0  0  0
    6.9368   -9.4831    4.2640 H   0  0  0  0  0  0  0  0  0  0  0  0
    8.0233   -5.5102    2.8860 H   0  0  0  0  0  0  0  0  0  0  0  0
    7.9974   -6.1539    4.5008 H   0  0  0  0  0  0  0  0  0  0  0  0
    6.6710   -5.1237    3.9485 H   0  0  0  0  0  0  0  0  0  0  0  0
    8.1280   -7.6443    1.6324 H   0  0  0  0  0  0  0  0  0  0  0  0
    7.2748   -9.0608    2.2335 H   0  0  0  0  0  0  0  0  0  0  0  0
    8.5121   -8.2697    3.2158 H   0  0  0  0  0  0  0  0  0  0  0  0
    5.5009   -7.7423    1.4119 H   0  0  0  0  0  0  0  0  0  0  0  0
    6.6387   -4.9829    1.2933 H   0  0  0  0  0  0  0  0  0  0  0  0
    6.6179   -6.2553    0.1038 H   0  0  0  0  0  0  0  0  0  0  0  0
    4.6646   -5.3811   -0.7710 H   0  0  0  0  0  0  0  0  0  0  0  0
    4.9905   -3.4575    1.5523 H   0  0  0  0  0  0  0  0  0  0  0  0
    5.1329   -2.9784   -1.4638 H   0  0  0  0  0  0  0  0  0  0  0  0
    6.5378   -3.1463   -0.4075 H   0  0  0  0  0  0  0  0  0  0  0  0
    5.4303   -1.7874   -0.2078 H   0  0  0  0  0  0  0  0  0  0  0  0
    3.1373   -2.1458    0.8843 H   0  0  0  0  0  0  0  0  0  0  0  0
    2.7701   -3.1473   -0.4839 H   0  0  0  0  0  0  0  0  0  0  0  0
    1.5572   -5.7540    1.7027 H   0  0  0  0  0  0  0  0  0  0  0  0
    2.2412   -5.3657   -0.9552 H   0  0  0  0  0  0  0  0  0  0  0  0
    3.5002   -6.9498    0.3916 H   0  0  0  0  0  0  0  0  0  0  0  0
    3.2814   -5.0821    3.4025 H   0  0  0  0  0  0  0  0  0  0  0  0
  1  2  2  0
  1 30  1  0
  1 31  1  0
  2  6  1  0
  2  3  1  0
  3 10  1  0
  3  4  1  0
  3 32  1  1
  5  4  1  1
  4 33  1  0
  4 34  1  0
  5 28  1  0
  5  6  1  0
  5  8  1  0
  6  7  1  0
  6 35  1  6
  7 36  1  0
  8  9  1  0
  8 12  1  0
  8 37  1  6
  9 10  1  0
  9 38  1  0
  9 39  1  0
 10 11  1  0
 10 40  1  1
 11 41  1  0
 12 13  1  0
 12 14  1  1
 12 15  1  0
 13 42  1  0
 13 43  1  0
 13 44  1  0
 14 45  1  0
 15 16  1  0
 15 17  1  0
 15 18  1  0
 16 46  1  0
 16 47  1  0
 16 48  1  0
 17 49  1  0
 17 50  1  0
 17 51  1  0
 18 28  1  0
 18 19  1  0
 18 52  1  6
 19 20  1  0
 19 53  1  0
 19 54  1  0
 20 27  1  0
 20 21  1  0
 20 55  1  6
 21 22  1  0
 21 23  1  0
 21 56  1  1
 22 57  1  0
 22 58  1  0
 22 59  1  0
 23 24  1  0
 23 60  1  0
 23 61  1  0
 24 25  1  0
 25 26  1  0
 25 27  1  0
 25 62  1  1
 26 63  1  0
 27 28  1  0
 27 64  1  6
 28 29  1  1
 29 65  1  0
M  END
>  <i_m_ct_stereo_status>  (259) 
1

>  <s_m_source_file>  (259) 
/var/tmp/pbs.5076255.sched01/tmp9n4xeji_/82rcfztp6i.sdf

>  <i_m_source_file_index>  (259) 
29

>  <i_lp_mmshare_version>  (259) 
48012

>  <i_f3d_flags>  (259) 
0

>  <s_epik_input>  (259) 
W09IXVtDQEhdMUMoPVtDSDJdKVtDQEhdKFtDSDJdMilbQ0BIXShbT0hdKVtDSDJdW0NAQEhdKFtDQEBdMTIzKVtDQEBdKFtDSDNdKShbT0hdKUMoW0NIM10pKFtDSDNdKVtDQEhdNFtDQEBdMyhbT0hdKVtDQEBIXTVbQ0BIXShbQ0gyXTQpW0NAQEhdKFtDSDNdKVtDSDJdT1tDQEhdNVtPSF0=

>  <s_epik_cmdline>  (259) 
J2VwaWtfcHl0aG9uJywgJy1waHQnLCAnMi4wJywgJy1waCcsICc3LjAnLCAnLXRuJywgJzgnLCAnLW1hJywgJzIwMCcsICctaW1hZScsICc8aW5maWxlLm1hZT4nLCAnLW9tYWUnLCAnPG91dGZpbGUubWFlPic=

>  <r_lp_tautomer_probability>  (259) 
1

>  <r_epik_Ionization_Penalty>  (259) 
1.57606e-06

>  <r_epik_Ionization_Penalty_Charging>  (259) 
0

>  <r_epik_Ionization_Penalty_Neutral>  (259) 
1.57606e-06

>  <r_epik_State_Penalty>  (259) 
-0

>  <r_epik_Charging_Adjusted_Penalty>  (259) 
0

>  <i_epik_Tot_Q>  (259) 
0

>  <i_epik_Tot_abs_Q>  (259) 
0

>  <s_epik_Chemistry_Notes>  (259) 
This compound contains an acetal/aminal-like group ( X-CH(R)-Y where X, Y are N, S, or O) that may be acid/base labile, releasing an aldehyde.

>  <s_lp_Force_Field>  (259) 
OPLS3e

>  <r_lp_Energy>  (259) 
76.112

>  <b_lp_Chiralities_Consistent>  (259) 
1

>  <s_lp_Variant>  (259) 
79:0-1

>  <s_i_glide_gridfile>  (259) 
pfpi4k_grid

>  <i_i_glide_lignum>  (259) 
29

>  <i_i_glide_rotatable_bonds>  (259) 
5

>  <r_i_docking_score>  (259) 
-3.12272

>  <r_i_glide_ligand_efficiency>  (259) 
-0.10768

>  <r_i_glide_ligand_efficiency_sa>  (259) 
-0.330827

>  <r_i_glide_ligand_efficiency_ln>  (259) 
-0.715024

>  <r_i_glide_gscore>  (259) 
-3.12272

>  <r_i_glide_lipo>  (259) 
-0.383644

>  <r_i_glide_hbond>  (259) 
0

>  <r_i_glide_metal>  (259) 
-0

>  <r_i_glide_rewards>  (259) 
-0.62367

>  <r_i_glide_evdw>  (259) 
-23.2048

>  <r_i_glide_ecoul>  (259) 
-6.0572

>  <r_i_glide_erotb>  (259) 
0

>  <r_i_glide_esite>  (259) 
-0.0465844

>  <r_i_glide_emodel>  (259) 
-35.4556

>  <r_i_glide_energy>  (259) 
-29.262

>  <r_i_glide_einternal>  (259) 
0.526195

>  <r_i_glide_intrahb_reward>  (259) 
-0

>  <i_i_glide_confnum>  (259) 
2

>  <i_i_glide_posenum>  (259) 
13

>  <r_i_glide_eff_state_penalty>  (259) 
0

>  <ligand_id>  (259) 
79

>  <original_smiles>  (259) 
C=C1C2CC3(C1O)C(CC2O)C(C)(O)C(C)(C)C1CC2C(C)COC(O)C2C13O

>  <smiles>  (259) 
[H]OC1([H])OC([H])([H])C([H])(C([H])([H])[H])C2([H])C([H])([H])C3([H])C(O[H])(C12[H])C12C([H])(O[H])C(=C([H])[H])C([H])(C1([H])[H])C([H])(O[H])C([H])([H])C2([H])C(O[H])(C([H])([H])[H])C3(C([H])([H])[H])C([H])([H])[H]

$$$$
80:0:0
     RDKit          3D

 17 17  0  0  1  0  0  0  0  0999 V2000
    2.3795   -3.0547   -2.6398 C   0  0  0  0  0  0  0  0  0  0  0  0
    3.5353   -3.2397   -1.8403 O   0  0  0  0  0  0  0  0  0  0  0  0
    4.6878   -2.6260   -2.1621 C   0  0  0  0  0  0  0  0  0  0  0  0
    4.7959   -1.8564   -3.1182 O   0  0  0  0  0  0  0  0  0  0  0  0
    5.8113   -2.9861   -1.2393 C   0  0  0  0  0  0  0  0  0  0  0  0
    5.6424   -3.9897   -0.2524 C   0  0  0  0  0  0  0  0  0  0  0  0
    6.7147   -4.3155    0.5946 C   0  0  0  0  0  0  0  0  0  0  0  0
    7.9327   -3.6334    0.4328 C   0  0  0  0  0  0  0  0  0  0  0  0
    8.0208   -2.6571   -0.5738 C   0  0  0  0  0  0  0  0  0  0  0  0
    6.9893   -2.3238   -1.3839 N   0  0  0  0  0  0  0  0  0  0  0  0
    1.5475   -3.6136   -2.2094 H   0  0  0  0  0  0  0  0  0  0  0  0
    2.5423   -3.4150   -3.6576 H   0  0  0  0  0  0  0  0  0  0  0  0
    2.0973   -2.0005   -2.6791 H   0  0  0  0  0  0  0  0  0  0  0  0
    4.7098   -4.5209   -0.1389 H   0  0  0  0  0  0  0  0  0  0  0  0
    6.6051   -5.0736    1.3569 H   0  0  0  0  0  0  0  0  0  0  0  0
    8.7784   -3.8526    1.0704 H   0  0  0  0  0  0  0  0  0  0  0  0
    8.9407   -2.1131   -0.7278 H   0  0  0  0  0  0  0  0  0  0  0  0
  1  2  1  0
  1 11  1  0
  1 12  1  0
  1 13  1  0
  2  3  1  0
  3  4  2  0
  3  5  1  0
  5 10  2  0
  5  6  1  0
  6  7  2  0
  6 14  1  0
  7  8  1  0
  7 15  1  0
  8  9  2  0
  8 16  1  0
  9 10  1  0
  9 17  1  0
M  END
>  <i_m_ct_stereo_status>  (260) 
1

>  <s_m_source_file>  (260) 
/var/tmp/pbs.5076255.sched01/tmp9n4xeji_/82rcfztp6i.sdf

>  <i_m_source_file_index>  (260) 
30

>  <i_lp_mmshare_version>  (260) 
48012

>  <i_f3d_flags>  (260) 
0

>  <s_epik_input>  (260) 
W0NIM11PQyg9TyljMVtjSF1bY0hdW2NIXVtjSF1uMQ==

>  <s_epik_cmdline>  (260) 
J2VwaWtfcHl0aG9uJywgJy1waHQnLCAnMi4wJywgJy1waCcsICc3LjAnLCAnLXRuJywgJzgnLCAnLW1hJywgJzIwMCcsICctaW1hZScsICc8aW5maWxlLm1hZT4nLCAnLW9tYWUnLCAnPG91dGZpbGUubWFlPic=

>  <r_lp_tautomer_probability>  (260) 
1

>  <r_epik_Ionization_Penalty>  (260) 
0.000165051

>  <r_epik_Ionization_Penalty_Charging>  (260) 
0

>  <r_epik_Ionization_Penalty_Neutral>  (260) 
0.000165051

>  <r_epik_State_Penalty>  (260) 
-0

>  <r_epik_Charging_Adjusted_Penalty>  (260) 
0

>  <i_epik_Tot_Q>  (260) 
0

>  <i_epik_Tot_abs_Q>  (260) 
0

>  <s_epik_Chemistry_Notes>  (260) 
This compound has an ester and may undergo hydrolysis at high or low pH.

>  <s_lp_Force_Field>  (260) 
OPLS3e

>  <r_lp_Energy>  (260) 
12.8797

>  <b_lp_Chiralities_Consistent>  (260) 
1

>  <s_lp_Variant>  (260) 
80:0-1

>  <s_i_glide_gridfile>  (260) 
pfpi4k_grid

>  <i_i_glide_lignum>  (260) 
30

>  <i_i_glide_rotatable_bonds>  (260) 
2

>  <r_i_docking_score>  (260) 
-4.41527

>  <r_i_glide_ligand_efficiency>  (260) 
-0.441527

>  <r_i_glide_ligand_efficiency_sa>  (260) 
-0.951241

>  <r_i_glide_ligand_efficiency_ln>  (260) 
-1.33691

>  <r_i_glide_gscore>  (260) 
-4.41527

>  <r_i_glide_lipo>  (260) 
-0.496698

>  <r_i_glide_hbond>  (260) 
-0.16

>  <r_i_glide_metal>  (260) 
-0

>  <r_i_glide_rewards>  (260) 
-2.31511

>  <r_i_glide_evdw>  (260) 
-16.2724

>  <r_i_glide_ecoul>  (260) 
-4.19895

>  <r_i_glide_erotb>  (260) 
0

>  <r_i_glide_esite>  (260) 
0

>  <r_i_glide_emodel>  (260) 
-26.5591

>  <r_i_glide_energy>  (260) 
-20.4714

>  <r_i_glide_einternal>  (260) 
0.0902671

>  <r_i_glide_intrahb_reward>  (260) 
-0

>  <i_i_glide_confnum>  (260) 
1

>  <i_i_glide_posenum>  (260) 
30

>  <r_i_glide_eff_state_penalty>  (260) 
0

>  <ligand_id>  (260) 
80

>  <original_smiles>  (260) 
COC(=O)c1ccccn1

>  <smiles>  (260) 
[H]c1nc(C(=O)OC([H])([H])[H])c([H])c([H])c1[H]

$$$$
80:0:1
     RDKit          3D

 17 17  0  0  1  0  0  0  0  0999 V2000
    4.3563   -6.5209    0.6873 C   0  0  0  0  0  0  0  0  0  0  0  0
    3.2437   -7.1562    1.2888 O   0  0  0  0  0  0  0  0  0  0  0  0
    2.0336   -6.5635    1.2815 C   0  0  0  0  0  0  0  0  0  0  0  0
    1.8145   -5.4629    0.7649 O   0  0  0  0  0  0  0  0  0  0  0  0
    0.9902   -7.3918    1.9616 C   0  0  0  0  0  0  0  0  0  0  0  0
    1.2983   -8.6815    2.4702 C   0  0  0  0  0  0  0  0  0  0  0  0
    0.2896   -9.4418    3.0858 C   0  0  0  0  0  0  0  0  0  0  0  0
   -0.9962   -8.8844    3.1898 C   0  0  0  0  0  0  0  0  0  0  0  0
   -1.2118   -7.5998    2.6686 C   0  0  0  0  0  0  0  0  0  0  0  0
   -0.2531   -6.8550    2.0743 N   0  0  0  0  0  0  0  0  0  0  0  0
    5.2318   -7.1607    0.8007 H   0  0  0  0  0  0  0  0  0  0  0  0
    4.5719   -5.5629    1.1651 H   0  0  0  0  0  0  0  0  0  0  0  0
    4.1908   -6.3593   -0.3800 H   0  0  0  0  0  0  0  0  0  0  0  0
    2.2829   -9.1158    2.3704 H   0  0  0  0  0  0  0  0  0  0  0  0
    0.4967  -10.4289    3.4687 H   0  0  0  0  0  0  0  0  0  0  0  0
   -1.7927   -9.4408    3.6633 H   0  0  0  0  0  0  0  0  0  0  0  0
   -2.1862   -7.1454    2.7392 H   0  0  0  0  0  0  0  0  0  0  0  0
  1  2  1  0
  1 11  1  0
  1 12  1  0
  1 13  1  0
  2  3  1  0
  3  4  2  0
  3  5  1  0
  5 10  2  0
  5  6  1  0
  6  7  2  0
  6 14  1  0
  7  8  1  0
  7 15  1  0
  8  9  2  0
  8 16  1  0
  9 10  1  0
  9 17  1  0
M  END
>  <i_m_ct_stereo_status>  (261) 
1

>  <s_m_source_file>  (261) 
/var/tmp/pbs.5076255.sched01/tmp9n4xeji_/82rcfztp6i.sdf

>  <i_m_source_file_index>  (261) 
30

>  <i_lp_mmshare_version>  (261) 
48012

>  <i_f3d_flags>  (261) 
0

>  <s_epik_input>  (261) 
W0NIM11PQyg9TyljMVtjSF1bY0hdW2NIXVtjSF1uMQ==

>  <s_epik_cmdline>  (261) 
J2VwaWtfcHl0aG9uJywgJy1waHQnLCAnMi4wJywgJy1waCcsICc3LjAnLCAnLXRuJywgJzgnLCAnLW1hJywgJzIwMCcsICctaW1hZScsICc8aW5maWxlLm1hZT4nLCAnLW9tYWUnLCAnPG91dGZpbGUubWFlPic=

>  <r_lp_tautomer_probability>  (261) 
1

>  <r_epik_Ionization_Penalty>  (261) 
0.000165051

>  <r_epik_Ionization_Penalty_Charging>  (261) 
0

>  <r_epik_Ionization_Penalty_Neutral>  (261) 
0.000165051

>  <r_epik_State_Penalty>  (261) 
-0

>  <r_epik_Charging_Adjusted_Penalty>  (261) 
0

>  <i_epik_Tot_Q>  (261) 
0

>  <i_epik_Tot_abs_Q>  (261) 
0

>  <s_epik_Chemistry_Notes>  (261) 
This compound has an ester and may undergo hydrolysis at high or low pH.

>  <s_lp_Force_Field>  (261) 
OPLS3e

>  <r_lp_Energy>  (261) 
12.8797

>  <b_lp_Chiralities_Consistent>  (261) 
1

>  <s_lp_Variant>  (261) 
80:0-1

>  <s_i_glide_gridfile>  (261) 
pfpi4k_grid

>  <i_i_glide_lignum>  (261) 
30

>  <i_i_glide_rotatable_bonds>  (261) 
2

>  <r_i_docking_score>  (261) 
-3.86921

>  <r_i_glide_ligand_efficiency>  (261) 
-0.386921

>  <r_i_glide_ligand_efficiency_sa>  (261) 
-0.833595

>  <r_i_glide_ligand_efficiency_ln>  (261) 
-1.17157

>  <r_i_glide_gscore>  (261) 
-3.86921

>  <r_i_glide_lipo>  (261) 
-0.128207

>  <r_i_glide_hbond>  (261) 
-0.241344

>  <r_i_glide_metal>  (261) 
-0

>  <r_i_glide_rewards>  (261) 
-2.25

>  <r_i_glide_evdw>  (261) 
-14.9671

>  <r_i_glide_ecoul>  (261) 
-3.15737

>  <r_i_glide_erotb>  (261) 
0

>  <r_i_glide_esite>  (261) 
-0.0276951

>  <r_i_glide_emodel>  (261) 
-23.4932

>  <r_i_glide_energy>  (261) 
-18.1245

>  <r_i_glide_einternal>  (261) 
0.0170273

>  <r_i_glide_intrahb_reward>  (261) 
-0

>  <i_i_glide_confnum>  (261) 
2

>  <i_i_glide_posenum>  (261) 
1

>  <r_i_glide_eff_state_penalty>  (261) 
0

>  <ligand_id>  (261) 
80

>  <original_smiles>  (261) 
COC(=O)c1ccccn1

>  <smiles>  (261) 
[H]c1nc(C(=O)OC([H])([H])[H])c([H])c([H])c1[H]

$$$$
80:0:2
     RDKit          3D

 17 17  0  0  1  0  0  0  0  0999 V2000
    7.2313   -3.9478    1.0158 C   0  0  0  0  0  0  0  0  0  0  0  0
    6.5221   -3.6258   -0.1670 O   0  0  0  0  0  0  0  0  0  0  0  0
    5.9462   -2.4110   -0.2900 C   0  0  0  0  0  0  0  0  0  0  0  0
    6.0739   -1.5097    0.5402 O   0  0  0  0  0  0  0  0  0  0  0  0
    5.1375   -2.2764   -1.5348 C   0  0  0  0  0  0  0  0  0  0  0  0
    4.3904   -1.0973   -1.7568 C   0  0  0  0  0  0  0  0  0  0  0  0
    3.5981   -1.0027   -2.9182 C   0  0  0  0  0  0  0  0  0  0  0  0
    3.5903   -2.0788   -3.8227 C   0  0  0  0  0  0  0  0  0  0  0  0
    4.3731   -3.2100   -3.5193 C   0  0  0  0  0  0  0  0  0  0  0  0
    5.1427   -3.3019   -2.4183 N   0  0  0  0  0  0  0  0  0  0  0  0
    7.6784   -4.9360    0.9196 H   0  0  0  0  0  0  0  0  0  0  0  0
    6.5488   -3.9610    1.8645 H   0  0  0  0  0  0  0  0  0  0  0  0
    8.0269   -3.2285    1.2214 H   0  0  0  0  0  0  0  0  0  0  0  0
    4.3866   -0.2931   -1.0336 H   0  0  0  0  0  0  0  0  0  0  0  0
    2.9951   -0.1266   -3.1111 H   0  0  0  0  0  0  0  0  0  0  0  0
    2.9797   -2.0500   -4.7104 H   0  0  0  0  0  0  0  0  0  0  0  0
    4.3965   -4.0638   -4.1810 H   0  0  0  0  0  0  0  0  0  0  0  0
  1  2  1  0
  1 11  1  0
  1 12  1  0
  1 13  1  0
  2  3  1  0
  3  4  2  0
  3  5  1  0
  5 10  2  0
  5  6  1  0
  6  7  2  0
  6 14  1  0
  7  8  1  0
  7 15  1  0
  8  9  2  0
  8 16  1  0
  9 10  1  0
  9 17  1  0
M  END
>  <i_m_ct_stereo_status>  (262) 
1

>  <s_m_source_file>  (262) 
/var/tmp/pbs.5076255.sched01/tmp9n4xeji_/82rcfztp6i.sdf

>  <i_m_source_file_index>  (262) 
30

>  <i_lp_mmshare_version>  (262) 
48012

>  <i_f3d_flags>  (262) 
0

>  <s_epik_input>  (262) 
W0NIM11PQyg9TyljMVtjSF1bY0hdW2NIXVtjSF1uMQ==

>  <s_epik_cmdline>  (262) 
J2VwaWtfcHl0aG9uJywgJy1waHQnLCAnMi4wJywgJy1waCcsICc3LjAnLCAnLXRuJywgJzgnLCAnLW1hJywgJzIwMCcsICctaW1hZScsICc8aW5maWxlLm1hZT4nLCAnLW9tYWUnLCAnPG91dGZpbGUubWFlPic=

>  <r_lp_tautomer_probability>  (262) 
1

>  <r_epik_Ionization_Penalty>  (262) 
0.000165051

>  <r_epik_Ionization_Penalty_Charging>  (262) 
0

>  <r_epik_Ionization_Penalty_Neutral>  (262) 
0.000165051

>  <r_epik_State_Penalty>  (262) 
-0

>  <r_epik_Charging_Adjusted_Penalty>  (262) 
0

>  <i_epik_Tot_Q>  (262) 
0

>  <i_epik_Tot_abs_Q>  (262) 
0

>  <s_epik_Chemistry_Notes>  (262) 
This compound has an ester and may undergo hydrolysis at high or low pH.

>  <s_lp_Force_Field>  (262) 
OPLS3e

>  <r_lp_Energy>  (262) 
12.8797

>  <b_lp_Chiralities_Consistent>  (262) 
1

>  <s_lp_Variant>  (262) 
80:0-1

>  <s_i_glide_gridfile>  (262) 
pfpi4k_grid

>  <i_i_glide_lignum>  (262) 
30

>  <i_i_glide_rotatable_bonds>  (262) 
2

>  <r_i_docking_score>  (262) 
-3.55474

>  <r_i_glide_ligand_efficiency>  (262) 
-0.355474

>  <r_i_glide_ligand_efficiency_sa>  (262) 
-0.765845

>  <r_i_glide_ligand_efficiency_ln>  (262) 
-1.07635

>  <r_i_glide_gscore>  (262) 
-3.55474

>  <r_i_glide_lipo>  (262) 
-0.434915

>  <r_i_glide_hbond>  (262) 
0

>  <r_i_glide_metal>  (262) 
-0

>  <r_i_glide_rewards>  (262) 
-2.25

>  <r_i_glide_evdw>  (262) 
-18.6704

>  <r_i_glide_ecoul>  (262) 
0.477854

>  <r_i_glide_erotb>  (262) 
0

>  <r_i_glide_esite>  (262) 
-0.00797972

>  <r_i_glide_emodel>  (262) 
-22.448

>  <r_i_glide_energy>  (262) 
-18.1926

>  <r_i_glide_einternal>  (262) 
1.33701

>  <r_i_glide_intrahb_reward>  (262) 
-0

>  <i_i_glide_confnum>  (262) 
2

>  <i_i_glide_posenum>  (262) 
35

>  <r_i_glide_eff_state_penalty>  (262) 
0

>  <ligand_id>  (262) 
80

>  <original_smiles>  (262) 
COC(=O)c1ccccn1

>  <smiles>  (262) 
[H]c1nc(C(=O)OC([H])([H])[H])c([H])c([H])c1[H]

$$$$
81:0:0
     RDKit          3D

 15 16  0  0  1  0  0  0  0  0999 V2000
    0.5145   -2.2094    4.2479 C   0  0  0  0  0  0  0  0  0  0  0  0
   -0.3621   -1.0838    4.6856 C   0  0  0  0  0  0  0  0  0  0  0  0
   -1.1304   -1.0744    5.7805 N   0  0  0  0  0  0  0  0  0  0  0  0
   -1.7857    0.1473    5.8528 N   0  0  0  0  0  0  0  0  0  0  0  0
   -1.4160    0.8609    4.7839 C   0  0  0  0  0  0  0  0  0  0  0  0
   -1.7728    2.0960    4.3862 N   0  0  0  0  0  0  0  0  0  0  0  0
   -1.2215    2.5023    3.2458 C   0  0  0  0  0  0  0  0  0  0  0  0
   -0.3152    1.7077    2.4994 C   0  0  0  0  0  0  0  0  0  0  0  0
    0.0856    0.4860    2.8520 N   0  0  0  0  0  0  0  0  0  0  0  0
   -0.5072    0.0976    4.0188 N   0  0  0  0  0  0  0  0  0  0  0  0
    0.4502   -3.0297    4.9603 H   0  0  0  0  0  0  0  0  0  0  0  0
    1.5514   -1.8835    4.1849 H   0  0  0  0  0  0  0  0  0  0  0  0
    0.2063   -2.5794    3.2732 H   0  0  0  0  0  0  0  0  0  0  0  0
   -1.4900    3.4924    2.8914 H   0  0  0  0  0  0  0  0  0  0  0  0
    0.0982    2.1033    1.5771 H   0  0  0  0  0  0  0  0  0  0  0  0
  1  2  1  0
  1 11  1  0
  1 12  1  0
  1 13  1  0
  2 10  1  0
  2  3  2  0
  3  4  1  0
  4  5  2  0
  5 10  1  0
  5  6  1  0
  6  7  2  0
  7  8  1  0
  7 14  1  0
  8  9  2  0
  8 15  1  0
  9 10  1  0
M  END
>  <i_m_ct_stereo_status>  (263) 
1

>  <s_m_source_file>  (263) 
/var/tmp/pbs.5076255.sched01/tmp9n4xeji_/82rcfztp6i.sdf

>  <i_m_source_file_index>  (263) 
31

>  <i_lp_mmshare_version>  (263) 
48012

>  <i_f3d_flags>  (263) 
0

>  <s_epik_input>  (263) 
bjFuYyhbQ0gzXSluKGMxMiluW2NIXVtjSF1uMg==

>  <s_epik_cmdline>  (263) 
J2VwaWtfcHl0aG9uJywgJy1waHQnLCAnMi4wJywgJy1waCcsICc3LjAnLCAnLXRuJywgJzgnLCAnLW1hJywgJzIwMCcsICctaW1hZScsICc8aW5maWxlLm1hZT4nLCAnLW9tYWUnLCAnPG91dGZpbGUubWFlPic=

>  <r_lp_tautomer_probability>  (263) 
1

>  <r_epik_Ionization_Penalty>  (263) 
2.22808e-09

>  <r_epik_Ionization_Penalty_Charging>  (263) 
0

>  <r_epik_Ionization_Penalty_Neutral>  (263) 
2.22808e-09

>  <r_epik_State_Penalty>  (263) 
-0

>  <r_epik_Charging_Adjusted_Penalty>  (263) 
0

>  <i_epik_Tot_Q>  (263) 
0

>  <i_epik_Tot_abs_Q>  (263) 
0

>  <s_lp_Force_Field>  (263) 
OPLS3e

>  <r_lp_Energy>  (263) 
16.183

>  <b_lp_Chiralities_Consistent>  (263) 
1

>  <s_lp_Variant>  (263) 
81:0-1

>  <s_i_glide_gridfile>  (263) 
pfpi4k_grid

>  <i_i_glide_lignum>  (263) 
31

>  <i_i_glide_rotatable_bonds>  (263) 
0

>  <r_i_docking_score>  (263) 
-4.0082

>  <r_i_glide_ligand_efficiency>  (263) 
-0.40082

>  <r_i_glide_ligand_efficiency_sa>  (263) 
-0.86354

>  <r_i_glide_ligand_efficiency_ln>  (263) 
-1.21366

>  <r_i_glide_gscore>  (263) 
-4.0082

>  <r_i_glide_lipo>  (263) 
-0.0399535

>  <r_i_glide_hbond>  (263) 
0

>  <r_i_glide_metal>  (263) 
-0

>  <r_i_glide_rewards>  (263) 
-2.25

>  <r_i_glide_evdw>  (263) 
-13.7352

>  <r_i_glide_ecoul>  (263) 
-5.47372

>  <r_i_glide_erotb>  (263) 
0

>  <r_i_glide_esite>  (263) 
-0.21043

>  <r_i_glide_emodel>  (263) 
-25.1328

>  <r_i_glide_energy>  (263) 
-19.2089

>  <r_i_glide_einternal>  (263) 
0

>  <r_i_glide_intrahb_reward>  (263) 
-0

>  <i_i_glide_confnum>  (263) 
1

>  <i_i_glide_posenum>  (263) 
29

>  <r_i_glide_eff_state_penalty>  (263) 
0

>  <ligand_id>  (263) 
81

>  <original_smiles>  (263) 
Cc1nnc2nccnn12

>  <smiles>  (263) 
[H]c1nc2nnc(C([H])([H])[H])n2nc1[H]

$$$$
81:0:1
     RDKit          3D

 15 16  0  0  1  0  0  0  0  0999 V2000
   -2.4505    3.3590    7.2126 C   0  0  0  0  0  0  0  0  0  0  0  0
   -1.9961    2.1868    6.4147 C   0  0  0  0  0  0  0  0  0  0  0  0
   -1.8330    0.9447    6.8787 N   0  0  0  0  0  0  0  0  0  0  0  0
   -1.4281    0.1261    5.8328 N   0  0  0  0  0  0  0  0  0  0  0  0
   -1.3339    0.8994    4.7446 C   0  0  0  0  0  0  0  0  0  0  0  0
   -0.9649    0.5879    3.4888 N   0  0  0  0  0  0  0  0  0  0  0  0
   -0.9945    1.6063    2.6309 C   0  0  0  0  0  0  0  0  0  0  0  0
   -1.3940    2.9163    3.0062 C   0  0  0  0  0  0  0  0  0  0  0  0
   -1.7688    3.2813    4.2347 N   0  0  0  0  0  0  0  0  0  0  0  0
   -1.7117    2.2179    5.0827 N   0  0  0  0  0  0  0  0  0  0  0  0
   -2.6236    3.0585    8.2466 H   0  0  0  0  0  0  0  0  0  0  0  0
   -3.3783    3.7378    6.7938 H   0  0  0  0  0  0  0  0  0  0  0  0
   -1.6890    4.1433    7.1965 H   0  0  0  0  0  0  0  0  0  0  0  0
   -0.7088    1.3891    1.6051 H   0  0  0  0  0  0  0  0  0  0  0  0
   -1.3894    3.6917    2.2532 H   0  0  0  0  0  0  0  0  0  0  0  0
  1  2  1  0
  1 11  1  0
  1 12  1  0
  1 13  1  0
  2 10  1  0
  2  3  2  0
  3  4  1  0
  4  5  2  0
  5 10  1  0
  5  6  1  0
  6  7  2  0
  7  8  1  0
  7 14  1  0
  8  9  2  0
  8 15  1  0
  9 10  1  0
M  END
>  <i_m_ct_stereo_status>  (264) 
1

>  <s_m_source_file>  (264) 
/var/tmp/pbs.5076255.sched01/tmp9n4xeji_/82rcfztp6i.sdf

>  <i_m_source_file_index>  (264) 
31

>  <i_lp_mmshare_version>  (264) 
48012

>  <i_f3d_flags>  (264) 
0

>  <s_epik_input>  (264) 
bjFuYyhbQ0gzXSluKGMxMiluW2NIXVtjSF1uMg==

>  <s_epik_cmdline>  (264) 
J2VwaWtfcHl0aG9uJywgJy1waHQnLCAnMi4wJywgJy1waCcsICc3LjAnLCAnLXRuJywgJzgnLCAnLW1hJywgJzIwMCcsICctaW1hZScsICc8aW5maWxlLm1hZT4nLCAnLW9tYWUnLCAnPG91dGZpbGUubWFlPic=

>  <r_lp_tautomer_probability>  (264) 
1

>  <r_epik_Ionization_Penalty>  (264) 
2.22808e-09

>  <r_epik_Ionization_Penalty_Charging>  (264) 
0

>  <r_epik_Ionization_Penalty_Neutral>  (264) 
2.22808e-09

>  <r_epik_State_Penalty>  (264) 
-0

>  <r_epik_Charging_Adjusted_Penalty>  (264) 
0

>  <i_epik_Tot_Q>  (264) 
0

>  <i_epik_Tot_abs_Q>  (264) 
0

>  <s_lp_Force_Field>  (264) 
OPLS3e

>  <r_lp_Energy>  (264) 
16.183

>  <b_lp_Chiralities_Consistent>  (264) 
1

>  <s_lp_Variant>  (264) 
81:0-1

>  <s_i_glide_gridfile>  (264) 
pfpi4k_grid

>  <i_i_glide_lignum>  (264) 
31

>  <i_i_glide_rotatable_bonds>  (264) 
0

>  <r_i_docking_score>  (264) 
-3.90888

>  <r_i_glide_ligand_efficiency>  (264) 
-0.390888

>  <r_i_glide_ligand_efficiency_sa>  (264) 
-0.842142

>  <r_i_glide_ligand_efficiency_ln>  (264) 
-1.18358

>  <r_i_glide_gscore>  (264) 
-3.90888

>  <r_i_glide_lipo>  (264) 
-0.110496

>  <r_i_glide_hbond>  (264) 
0

>  <r_i_glide_metal>  (264) 
-0

>  <r_i_glide_rewards>  (264) 
-2.26168

>  <r_i_glide_evdw>  (264) 
-13.0854

>  <r_i_glide_ecoul>  (264) 
-4.55437

>  <r_i_glide_erotb>  (264) 
0

>  <r_i_glide_esite>  (264) 
-0.199277

>  <r_i_glide_emodel>  (264) 
-23.4177

>  <r_i_glide_energy>  (264) 
-17.6397

>  <r_i_glide_einternal>  (264) 
0

>  <r_i_glide_intrahb_reward>  (264) 
-0

>  <i_i_glide_confnum>  (264) 
1

>  <i_i_glide_posenum>  (264) 
13

>  <r_i_glide_eff_state_penalty>  (264) 
0

>  <ligand_id>  (264) 
81

>  <original_smiles>  (264) 
Cc1nnc2nccnn12

>  <smiles>  (264) 
[H]c1nc2nnc(C([H])([H])[H])n2nc1[H]

$$$$
81:0:2
     RDKit          3D

 15 16  0  0  1  0  0  0  0  0999 V2000
   -0.1043   -6.3299    5.5785 C   0  0  0  0  0  0  0  0  0  0  0  0
   -0.2470   -7.2987    4.4526 C   0  0  0  0  0  0  0  0  0  0  0  0
   -0.8594   -7.0599    3.2875 N   0  0  0  0  0  0  0  0  0  0  0  0
   -0.7666   -8.1941    2.4950 N   0  0  0  0  0  0  0  0  0  0  0  0
   -0.0992   -9.1155    3.1989 C   0  0  0  0  0  0  0  0  0  0  0  0
    0.2648  -10.3699    2.8796 N   0  0  0  0  0  0  0  0  0  0  0  0
    0.9371  -11.0221    3.8217 C   0  0  0  0  0  0  0  0  0  0  0  0
    1.2621  -10.4399    5.0735 C   0  0  0  0  0  0  0  0  0  0  0  0
    0.9409   -9.1978    5.4421 N   0  0  0  0  0  0  0  0  0  0  0  0
    0.2455   -8.5691    4.4544 N   0  0  0  0  0  0  0  0  0  0  0  0
   -0.5808   -5.3862    5.3145 H   0  0  0  0  0  0  0  0  0  0  0  0
    0.9535   -6.1395    5.7846 H   0  0  0  0  0  0  0  0  0  0  0  0
   -0.5789   -6.7160    6.4779 H   0  0  0  0  0  0  0  0  0  0  0  0
    1.2255  -12.0434    3.5955 H   0  0  0  0  0  0  0  0  0  0  0  0
    1.8008  -11.0356    5.8011 H   0  0  0  0  0  0  0  0  0  0  0  0
  1  2  1  0
  1 11  1  0
  1 12  1  0
  1 13  1  0
  2 10  1  0
  2  3  2  0
  3  4  1  0
  4  5  2  0
  5 10  1  0
  5  6  1  0
  6  7  2  0
  7  8  1  0
  7 14  1  0
  8  9  2  0
  8 15  1  0
  9 10  1  0
M  END
>  <i_m_ct_stereo_status>  (265) 
1

>  <s_m_source_file>  (265) 
/var/tmp/pbs.5076255.sched01/tmp9n4xeji_/82rcfztp6i.sdf

>  <i_m_source_file_index>  (265) 
31

>  <i_lp_mmshare_version>  (265) 
48012

>  <i_f3d_flags>  (265) 
0

>  <s_epik_input>  (265) 
bjFuYyhbQ0gzXSluKGMxMiluW2NIXVtjSF1uMg==

>  <s_epik_cmdline>  (265) 
J2VwaWtfcHl0aG9uJywgJy1waHQnLCAnMi4wJywgJy1waCcsICc3LjAnLCAnLXRuJywgJzgnLCAnLW1hJywgJzIwMCcsICctaW1hZScsICc8aW5maWxlLm1hZT4nLCAnLW9tYWUnLCAnPG91dGZpbGUubWFlPic=

>  <r_lp_tautomer_probability>  (265) 
1

>  <r_epik_Ionization_Penalty>  (265) 
2.22808e-09

>  <r_epik_Ionization_Penalty_Charging>  (265) 
0

>  <r_epik_Ionization_Penalty_Neutral>  (265) 
2.22808e-09

>  <r_epik_State_Penalty>  (265) 
-0

>  <r_epik_Charging_Adjusted_Penalty>  (265) 
0

>  <i_epik_Tot_Q>  (265) 
0

>  <i_epik_Tot_abs_Q>  (265) 
0

>  <s_lp_Force_Field>  (265) 
OPLS3e

>  <r_lp_Energy>  (265) 
16.183

>  <b_lp_Chiralities_Consistent>  (265) 
1

>  <s_lp_Variant>  (265) 
81:0-1

>  <s_i_glide_gridfile>  (265) 
pfpi4k_grid

>  <i_i_glide_lignum>  (265) 
31

>  <i_i_glide_rotatable_bonds>  (265) 
0

>  <r_i_docking_score>  (265) 
-3.76438

>  <r_i_glide_ligand_efficiency>  (265) 
-0.376438

>  <r_i_glide_ligand_efficiency_sa>  (265) 
-0.811011

>  <r_i_glide_ligand_efficiency_ln>  (265) 
-1.13983

>  <r_i_glide_gscore>  (265) 
-3.76438

>  <r_i_glide_lipo>  (265) 
-0.103455

>  <r_i_glide_hbond>  (265) 
0

>  <r_i_glide_metal>  (265) 
-0

>  <r_i_glide_rewards>  (265) 
-2.25

>  <r_i_glide_evdw>  (265) 
-15.057

>  <r_i_glide_ecoul>  (265) 
-2.65931

>  <r_i_glide_erotb>  (265) 
0

>  <r_i_glide_esite>  (265) 
-0.259177

>  <r_i_glide_emodel>  (265) 
-23.2793

>  <r_i_glide_energy>  (265) 
-17.7163

>  <r_i_glide_einternal>  (265) 
0

>  <r_i_glide_intrahb_reward>  (265) 
-0

>  <i_i_glide_confnum>  (265) 
1

>  <i_i_glide_posenum>  (265) 
3

>  <r_i_glide_eff_state_penalty>  (265) 
0

>  <ligand_id>  (265) 
81

>  <original_smiles>  (265) 
Cc1nnc2nccnn12

>  <smiles>  (265) 
[H]c1nc2nnc(C([H])([H])[H])n2nc1[H]

$$$$
83:0:0
     RDKit          3D

 52 59  0  0  1  0  0  0  0  0999 V2000
    8.7870   -3.0140    0.1794 C   0  0  0  0  0  0  0  0  0  0  0  0
    7.5691   -2.4844    0.6902 O   0  0  0  0  0  0  0  0  0  0  0  0
    6.3803   -3.0204    0.1154 C   0  0  2  0  0  0  0  0  0  0  0  0
    6.1862   -2.3225   -1.2582 C   0  0  1  0  0  0  0  0  0  0  0  0
    5.3462   -2.7512   -2.4765 C   0  0  1  0  0  0  0  0  0  0  0  0
    4.1355   -3.6118   -2.5610 C   0  0  0  0  0  0  0  0  0  0  0  0
    3.4408   -3.4482   -1.2057 C   0  0  2  0  0  0  0  0  0  0  0  0
    2.0149   -3.9535   -0.9979 C   0  0  0  0  0  0  0  0  0  0  0  0
    2.4450   -4.7876    0.2145 C   0  0  2  0  0  0  0  0  0  0  0  0
    2.7975   -4.1926    1.5918 C   0  0  1  0  0  0  0  0  0  0  0  0
    3.0259   -5.0825    2.8080 C   0  0  1  0  0  0  0  0  0  0  0  0
    2.1716   -6.2208    2.7669 O   0  0  0  0  0  0  0  0  0  0  0  0
    2.3535   -7.1059    3.8597 C   0  0  0  0  0  0  0  0  0  0  0  0
    4.4774   -5.2995    2.3434 C   0  0  1  0  0  0  0  0  0  0  0  0
    4.8623   -6.6010    1.9595 O   0  0  0  0  0  0  0  0  0  0  0  0
    4.3146   -4.2037    1.2318 C   0  0  2  0  0  0  0  0  0  0  0  0
    5.2815   -2.9951    1.2662 C   0  0  2  0  0  0  0  0  0  0  0  0
    4.4504   -1.7439    1.5395 C   0  0  1  0  0  0  0  0  0  0  0  0
    4.5230   -0.3212    1.0396 C   0  0  1  0  0  0  0  0  0  0  0  0
    5.7751   -0.0303    0.4864 O   0  0  0  0  0  0  0  0  0  0  0  0
    3.5323   -1.3144    0.4278 C   0  0  1  0  0  0  0  0  0  0  0  0
    3.6196   -1.9075   -0.9812 C   0  0  1  0  0  0  0  0  0  0  0  0
    4.9221   -1.6265   -1.6245 C   0  0  1  0  0  0  0  0  0  0  0  0
    4.9981   -0.4446   -2.3556 O   0  0  0  0  0  0  0  0  0  0  0  0
    3.8960   -4.5464   -0.1829 C   0  0  2  0  0  0  0  0  0  0  0  0
    4.6206   -5.6283   -0.7198 O   0  0  0  0  0  0  0  0  0  0  0  0
    9.6258   -2.5461    0.6919 H   0  0  0  0  0  0  0  0  0  0  0  0
    8.9247   -2.8343   -0.8874 H   0  0  0  0  0  0  0  0  0  0  0  0
    8.8451   -4.0885    0.3565 H   0  0  0  0  0  0  0  0  0  0  0  0
    6.5894   -4.0678   -0.0991 H   0  0  0  0  0  0  0  0  0  0  0  0
    7.0952   -1.8640   -1.6153 H   0  0  0  0  0  0  0  0  0  0  0  0
    5.8066   -2.5557   -3.4362 H   0  0  0  0  0  0  0  0  0  0  0  0
    3.4899   -3.2419   -3.3621 H   0  0  0  0  0  0  0  0  0  0  0  0
    4.4985   -4.5926   -2.8512 H   0  0  0  0  0  0  0  0  0  0  0  0
    1.3621   -3.1214   -0.7628 H   0  0  0  0  0  0  0  0  0  0  0  0
    1.6284   -4.5542   -1.8230 H   0  0  0  0  0  0  0  0  0  0  0  0
    2.1418   -5.8306    0.1896 H   0  0  0  0  0  0  0  0  0  0  0  0
    2.3517   -3.2299    1.8068 H   0  0  0  0  0  0  0  0  0  0  0  0
    2.9592   -4.4982    3.7282 H   0  0  0  0  0  0  0  0  0  0  0  0
    1.6847   -7.9631    3.7608 H   0  0  0  0  0  0  0  0  0  0  0  0
    2.1415   -6.5998    4.8015 H   0  0  0  0  0  0  0  0  0  0  0  0
    3.3749   -7.4845    3.8938 H   0  0  0  0  0  0  0  0  0  0  0  0
    5.1456   -4.9556    3.1303 H   0  0  0  0  0  0  0  0  0  0  0  0
    4.8797   -7.1436    2.7435 H   0  0  0  0  0  0  0  0  0  0  0  0
    5.8819   -3.1144    2.1634 H   0  0  0  0  0  0  0  0  0  0  0  0
    3.9972   -1.8029    2.5231 H   0  0  0  0  0  0  0  0  0  0  0  0
    4.1657    0.4577    1.7116 H   0  0  0  0  0  0  0  0  0  0  0  0
    5.6973    0.8015    0.0306 H   0  0  0  0  0  0  0  0  0  0  0  0
    2.5065   -1.1308    0.7342 H   0  0  0  0  0  0  0  0  0  0  0  0
    2.8734   -1.3774   -1.5802 H   0  0  0  0  0  0  0  0  0  0  0  0
    4.9613    0.2872   -1.7422 H   0  0  0  0  0  0  0  0  0  0  0  0
    4.0433   -6.0059   -1.3650 H   0  0  0  0  0  0  0  0  0  0  0  0
  1  2  1  0
  1 27  1  0
  1 28  1  0
  1 29  1  0
  2  3  1  0
  3 17  1  0
  3  4  1  0
  3 30  1  6
  4 23  1  0
  4  5  1  0
  4 31  1  6
  5 23  1  0
  5  6  1  0
  5 32  1  6
  7  6  1  6
  6 33  1  0
  6 34  1  0
  7 22  1  0
  7 25  1  0
  7  8  1  0
  8  9  1  0
  8 35  1  0
  8 36  1  0
  9 25  1  0
  9 10  1  0
  9 37  1  1
 10 16  1  0
 10 11  1  0
 10 38  1  1
 11 12  1  0
 11 14  1  0
 11 39  1  1
 12 13  1  0
 13 40  1  0
 13 41  1  0
 13 42  1  0
 14 15  1  0
 14 16  1  0
 14 43  1  1
 15 44  1  0
 16 17  1  0
 16 25  1  6
 17 18  1  0
 17 45  1  1
 18 21  1  0
 18 19  1  0
 18 46  1  1
 19 20  1  0
 19 21  1  0
 19 47  1  1
 20 48  1  0
 21 22  1  0
 21 49  1  1
 22 23  1  0
 22 50  1  6
 23 24  1  6
 24 51  1  0
 25 26  1  6
 26 52  1  0
M  END
>  <i_m_ct_stereo_status>  (266) 
1

>  <s_m_source_file>  (266) 
/var/tmp/pbs.5076255.sched01/tmp9n4xeji_/82rcfztp6i.sdf

>  <i_m_source_file_index>  (266) 
33

>  <i_lp_mmshare_version>  (266) 
48012

>  <i_f3d_flags>  (266) 
2

>  <s_epik_input>  (266) 
W09IXVtDQEBdMTJbQ0BIXShbQ0gyXTMpW0NAQEhdMVtDQEBIXShPW0NIM10pW0NAQEhdKFtDQEhdKFtDQEhdNFtPSF0pW0NASF00W0NAQEhdMltDQF0zNTYpQzc4W0NASF0oW0NAQEhdKFtDSDJdNSlbQ0BAXTY4W09IXSlbQ0BASF0oT1tDSDNdKVtDQEhdN1tPSF0=

>  <s_epik_cmdline>  (266) 
J2VwaWtfcHl0aG9uJywgJy1waHQnLCAnMi4wJywgJy1waCcsICc3LjAnLCAnLXRuJywgJzgnLCAnLW1hJywgJzIwMCcsICctaW1hZScsICc8aW5maWxlLm1hZT4nLCAnLW9tYWUnLCAnPG91dGZpbGUubWFlPic=

>  <r_lp_tautomer_probability>  (266) 
1

>  <r_epik_Ionization_Penalty>  (266) 
1.93327e-06

>  <r_epik_Ionization_Penalty_Charging>  (266) 
0

>  <r_epik_Ionization_Penalty_Neutral>  (266) 
1.93327e-06

>  <r_epik_State_Penalty>  (266) 
-0

>  <r_epik_Charging_Adjusted_Penalty>  (266) 
0

>  <i_epik_Tot_Q>  (266) 
0

>  <i_epik_Tot_abs_Q>  (266) 
0

>  <s_lp_Force_Field>  (266) 
OPLS3e

>  <r_lp_Energy>  (266) 
102.322

>  <b_lp_Chiralities_Consistent>  (266) 
0

>  <s_lp_Variant>  (266) 
83:0-1

>  <s_i_glide_gridfile>  (266) 
pfpi4k_grid

>  <i_i_glide_lignum>  (266) 
33

>  <i_i_glide_rotatable_bonds>  (266) 
6

>  <r_i_docking_score>  (266) 
-3.87574

>  <r_i_glide_ligand_efficiency>  (266) 
-0.149067

>  <r_i_glide_ligand_efficiency_sa>  (266) 
-0.44161

>  <r_i_glide_ligand_efficiency_ln>  (266) 
-0.910204

>  <r_i_glide_gscore>  (266) 
-3.87574

>  <r_i_glide_lipo>  (266) 
-0.548091

>  <r_i_glide_hbond>  (266) 
0

>  <r_i_glide_metal>  (266) 
-0

>  <r_i_glide_rewards>  (266) 
-0.938067

>  <r_i_glide_evdw>  (266) 
-12.3119

>  <r_i_glide_ecoul>  (266) 
-11.8266

>  <r_i_glide_erotb>  (266) 
0

>  <r_i_glide_esite>  (266) 
0

>  <r_i_glide_emodel>  (266) 
-27.7888

>  <r_i_glide_energy>  (266) 
-24.1385

>  <r_i_glide_einternal>  (266) 
2.53175

>  <r_i_glide_intrahb_reward>  (266) 
-0

>  <i_i_glide_confnum>  (266) 
2

>  <i_i_glide_posenum>  (266) 
14

>  <r_i_glide_eff_state_penalty>  (266) 
0

>  <ligand_id>  (266) 
83

>  <original_smiles>  (266) 
COC1C2C3CC45CC6C7C(OC)C(O)C7(C1C1C(O)C1C4C32O)C65O

>  <smiles>  (266) 
[H]OC1([H])C2([H])C1([H])C1([H])C([H])(OC([H])([H])[H])C3([H])C4([H])C([H])([H])C5(C([H])([H])C6([H])C7([H])C([H])(OC([H])([H])[H])C([H])(O[H])C17C65O[H])C2([H])C43O[H]

$$$$
83:0:1
     RDKit          3D

 52 59  0  0  1  0  0  0  0  0999 V2000
    8.9297   -2.8637   -0.0021 C   0  0  0  0  0  0  0  0  0  0  0  0
    7.7183   -2.3561    0.5386 O   0  0  0  0  0  0  0  0  0  0  0  0
    6.5214   -2.9549    0.0427 C   0  0  2  0  0  0  0  0  0  0  0  0
    6.2205   -2.2590   -1.3077 C   0  0  1  0  0  0  0  0  0  0  0  0
    5.3508   -2.7188   -2.4905 C   0  0  1  0  0  0  0  0  0  0  0  0
    4.1633   -3.6235   -2.5167 C   0  0  0  0  0  0  0  0  0  0  0  0
    3.5243   -3.4957   -1.1222 C   0  0  2  0  0  0  0  0  0  0  0  0
    2.1256   -4.0419   -0.8375 C   0  0  0  0  0  0  0  0  0  0  0  0
    2.6666   -4.8725    0.3383 C   0  0  2  0  0  0  0  0  0  0  0  0
    3.0817   -4.2649    1.6989 C   0  0  1  0  0  0  0  0  0  0  0  0
    3.4133   -5.1565    2.8905 C   0  0  1  0  0  0  0  0  0  0  0  0
    2.6021   -6.3281    2.8956 O   0  0  0  0  0  0  0  0  0  0  0  0
    2.8234   -7.1713    4.0137 C   0  0  0  0  0  0  0  0  0  0  0  0
    4.8390   -5.3129    2.3427 C   0  0  1  0  0  0  0  0  0  0  0  0
    5.2538   -6.6120    1.9463 O   0  0  0  0  0  0  0  0  0  0  0  0
    4.5709   -4.2249    1.2532 C   0  0  2  0  0  0  0  0  0  0  0  0
    5.4831   -2.9750    1.2489 C   0  0  2  0  0  0  0  0  0  0  0  0
    4.6019   -1.7697    1.5812 C   0  0  1  0  0  0  0  0  0  0  0  0
    4.5774   -0.3387    1.0949 C   0  0  1  0  0  0  0  0  0  0  0  0
    5.7958    0.0089    0.4963 O   0  0  0  0  0  0  0  0  0  0  0  0
    3.6045   -1.3673    0.5204 C   0  0  1  0  0  0  0  0  0  0  0  0
    3.6611   -1.9446   -0.9013 C   0  0  1  0  0  0  0  0  0  0  0  0
    4.9220   -1.6092   -1.6181 C   0  0  1  0  0  0  0  0  0  0  0  0
    4.9467   -0.4013   -2.3241 O   0  0  0  0  0  0  0  0  0  0  0  0
    4.0702   -4.5892   -0.1411 C   0  0  2  0  0  0  0  0  0  0  0  0
    4.7644   -5.6618   -0.7214 O   0  0  0  0  0  0  0  0  0  0  0  0
    9.7749   -2.3614    0.4690 H   0  0  0  0  0  0  0  0  0  0  0  0
    9.0092   -2.6982   -1.0768 H   0  0  0  0  0  0  0  0  0  0  0  0
    9.0266   -3.9324    0.1920 H   0  0  0  0  0  0  0  0  0  0  0  0
    6.7632   -3.9919   -0.1905 H   0  0  0  0  0  0  0  0  0  0  0  0
    7.0860   -1.7600   -1.7043 H   0  0  0  0  0  0  0  0  0  0  0  0
    5.7620   -2.5013   -3.4723 H   0  0  0  0  0  0  0  0  0  0  0  0
    3.4700   -3.2832   -3.2901 H   0  0  0  0  0  0  0  0  0  0  0  0
    4.5525   -4.5918   -2.8246 H   0  0  0  0  0  0  0  0  0  0  0  0
    1.4285   -3.2506   -0.5723 H   0  0  0  0  0  0  0  0  0  0  0  0
    1.7344   -4.6482   -1.6463 H   0  0  0  0  0  0  0  0  0  0  0  0
    2.4115   -5.9347    0.3207 H   0  0  0  0  0  0  0  0  0  0  0  0
    2.6019   -3.3284    1.9530 H   0  0  0  0  0  0  0  0  0  0  0  0
    3.3677   -4.5848    3.8180 H   0  0  0  0  0  0  0  0  0  0  0  0
    2.1924   -8.0604    3.9458 H   0  0  0  0  0  0  0  0  0  0  0  0
    2.5795   -6.6461    4.9372 H   0  0  0  0  0  0  0  0  0  0  0  0
    3.8623   -7.4978    4.0588 H   0  0  0  0  0  0  0  0  0  0  0  0
    5.5371   -4.9573    3.0996 H   0  0  0  0  0  0  0  0  0  0  0  0
    5.3316   -7.1445    2.7247 H   0  0  0  0  0  0  0  0  0  0  0  0
    6.1410   -3.0744    2.1129 H   0  0  0  0  0  0  0  0  0  0  0  0
    4.2180   -1.8543    2.5939 H   0  0  0  0  0  0  0  0  0  0  0  0
    4.2053    0.4114    1.7897 H   0  0  0  0  0  0  0  0  0  0  0  0
    5.6290    0.7460   -0.0861 H   0  0  0  0  0  0  0  0  0  0  0  0
    2.5775   -1.2419    0.8668 H   0  0  0  0  0  0  0  0  0  0  0  0
    2.8608   -1.4476   -1.4577 H   0  0  0  0  0  0  0  0  0  0  0  0
    4.0455   -0.1758   -2.4996 H   0  0  0  0  0  0  0  0  0  0  0  0
    4.1951   -5.9793   -1.4093 H   0  0  0  0  0  0  0  0  0  0  0  0
  1  2  1  0
  1 27  1  0
  1 28  1  0
  1 29  1  0
  2  3  1  0
  3 17  1  0
  3  4  1  0
  3 30  1  6
  4 23  1  0
  4  5  1  0
  4 31  1  6
  5 23  1  0
  5  6  1  0
  5 32  1  6
  7  6  1  6
  6 33  1  0
  6 34  1  0
  7 22  1  0
  7 25  1  0
  7  8  1  0
  8  9  1  0
  8 35  1  0
  8 36  1  0
  9 25  1  0
  9 10  1  0
  9 37  1  1
 10 16  1  0
 10 11  1  0
 10 38  1  1
 11 12  1  0
 11 14  1  0
 11 39  1  1
 12 13  1  0
 13 40  1  0
 13 41  1  0
 13 42  1  0
 14 15  1  0
 14 16  1  0
 14 43  1  1
 15 44  1  0
 16 17  1  0
 16 25  1  6
 17 18  1  0
 17 45  1  1
 18 21  1  0
 18 19  1  0
 18 46  1  1
 19 20  1  0
 19 21  1  0
 19 47  1  1
 20 48  1  0
 21 22  1  0
 21 49  1  1
 22 23  1  0
 22 50  1  6
 23 24  1  6
 24 51  1  0
 25 26  1  6
 26 52  1  0
M  END
>  <i_m_ct_stereo_status>  (267) 
1

>  <s_m_source_file>  (267) 
/var/tmp/pbs.5076255.sched01/tmp9n4xeji_/82rcfztp6i.sdf

>  <i_m_source_file_index>  (267) 
33

>  <i_lp_mmshare_version>  (267) 
48012

>  <i_f3d_flags>  (267) 
2

>  <s_epik_input>  (267) 
W09IXVtDQEBdMTJbQ0BIXShbQ0gyXTMpW0NAQEhdMVtDQEBIXShPW0NIM10pW0NAQEhdKFtDQEhdKFtDQEhdNFtPSF0pW0NASF00W0NAQEhdMltDQF0zNTYpQzc4W0NASF0oW0NAQEhdKFtDSDJdNSlbQ0BAXTY4W09IXSlbQ0BASF0oT1tDSDNdKVtDQEhdN1tPSF0=

>  <s_epik_cmdline>  (267) 
J2VwaWtfcHl0aG9uJywgJy1waHQnLCAnMi4wJywgJy1waCcsICc3LjAnLCAnLXRuJywgJzgnLCAnLW1hJywgJzIwMCcsICctaW1hZScsICc8aW5maWxlLm1hZT4nLCAnLW9tYWUnLCAnPG91dGZpbGUubWFlPic=

>  <r_lp_tautomer_probability>  (267) 
1

>  <r_epik_Ionization_Penalty>  (267) 
1.93327e-06

>  <r_epik_Ionization_Penalty_Charging>  (267) 
0

>  <r_epik_Ionization_Penalty_Neutral>  (267) 
1.93327e-06

>  <r_epik_State_Penalty>  (267) 
-0

>  <r_epik_Charging_Adjusted_Penalty>  (267) 
0

>  <i_epik_Tot_Q>  (267) 
0

>  <i_epik_Tot_abs_Q>  (267) 
0

>  <s_lp_Force_Field>  (267) 
OPLS3e

>  <r_lp_Energy>  (267) 
102.322

>  <b_lp_Chiralities_Consistent>  (267) 
0

>  <s_lp_Variant>  (267) 
83:0-1

>  <s_i_glide_gridfile>  (267) 
pfpi4k_grid

>  <i_i_glide_lignum>  (267) 
33

>  <i_i_glide_rotatable_bonds>  (267) 
6

>  <r_i_docking_score>  (267) 
-3.4675

>  <r_i_glide_ligand_efficiency>  (267) 
-0.133365

>  <r_i_glide_ligand_efficiency_sa>  (267) 
-0.395094

>  <r_i_glide_ligand_efficiency_ln>  (267) 
-0.814331

>  <r_i_glide_gscore>  (267) 
-3.4675

>  <r_i_glide_lipo>  (267) 
-0.509071

>  <r_i_glide_hbond>  (267) 
0

>  <r_i_glide_metal>  (267) 
-0

>  <r_i_glide_rewards>  (267) 
-0.938067

>  <r_i_glide_evdw>  (267) 
-11.837

>  <r_i_glide_ecoul>  (267) 
-9.5234

>  <r_i_glide_erotb>  (267) 
0

>  <r_i_glide_esite>  (267) 
0

>  <r_i_glide_emodel>  (267) 
-24.2613

>  <r_i_glide_energy>  (267) 
-21.3604

>  <r_i_glide_einternal>  (267) 
2.79829

>  <r_i_glide_intrahb_reward>  (267) 
-0

>  <i_i_glide_confnum>  (267) 
2

>  <i_i_glide_posenum>  (267) 
5

>  <r_i_glide_eff_state_penalty>  (267) 
0

>  <ligand_id>  (267) 
83

>  <original_smiles>  (267) 
COC1C2C3CC45CC6C7C(OC)C(O)C7(C1C1C(O)C1C4C32O)C65O

>  <smiles>  (267) 
[H]OC1([H])C2([H])C1([H])C1([H])C([H])(OC([H])([H])[H])C3([H])C4([H])C([H])([H])C5(C([H])([H])C6([H])C7([H])C([H])(OC([H])([H])[H])C([H])(O[H])C17C65O[H])C2([H])C43O[H]

$$$$
84:0:0
     RDKit          3D

 80 86  0  0  1  0  0  0  0  0999 V2000
    1.9664   -3.2143    4.0312 C   0  0  0  0  0  0  0  0  0  0  0  0
    2.0581   -2.8764    2.6462 O   0  0  0  0  0  0  0  0  0  0  0  0
    2.7994   -3.7674    1.8599 C   0  0  2  0  0  0  0  0  0  0  0  0
    2.7788   -5.0844    2.3418 O   0  0  0  0  0  0  0  0  0  0  0  0
    3.3826   -6.0271    1.5130 C   0  0  2  0  0  0  0  0  0  0  0  0
    3.2000   -7.3424    1.9703 O   0  0  0  0  0  0  0  0  0  0  0  0
    2.1737   -7.6015    2.9182 C   0  0  1  0  0  0  0  0  0  0  0  0
    0.7577   -7.3156    2.3978 C   0  0  0  0  0  0  0  0  0  0  0  0
   -0.1895   -8.0184    3.3872 C   0  0  0  0  0  0  0  0  0  0  0  0
   -0.8005   -6.9940    4.3635 C   0  0  0  0  0  0  0  0  0  0  0  0
   -1.3415   -8.7324    2.6472 C   0  0  0  0  0  0  0  0  0  0  0  0
    0.7274   -9.0131    4.1498 C   0  0  0  0  0  0  0  0  0  0  0  0
    2.0924   -9.0664    3.4139 C   0  0  1  0  0  0  0  0  0  0  0  0
    2.0374  -10.1648    2.3340 C   0  0  0  0  0  0  0  0  0  0  0  0
    2.4555  -11.4738    3.0451 C   0  0  0  0  0  0  0  0  0  0  0  0
    3.0150  -11.0753    4.4214 C   0  0  1  0  0  0  0  0  0  0  0  0
    4.3093  -11.6196    4.6311 O   0  0  0  0  0  0  0  0  0  0  0  0
    5.2439  -10.4279    4.7928 O   0  0  0  0  0  0  0  0  0  0  0  0
    4.6785   -9.4176    3.9671 C   0  0  1  0  0  0  0  0  0  0  0  0
    5.4621   -8.0925    4.1301 C   0  0  1  0  0  0  0  0  0  0  0  0
    6.1191   -7.7317    5.4468 C   0  0  0  0  0  0  0  0  0  0  0  0
    6.3327   -8.4763    2.9118 C   0  0  2  0  0  0  0  0  0  0  0  0
    6.8150   -7.4487    1.8797 C   0  0  0  0  0  0  0  0  0  0  0  0
    5.7620   -6.8148    0.9234 C   0  0  0  0  0  0  0  0  0  0  0  0
    4.9023   -5.6849    1.5383 C   0  0  1  0  0  0  0  0  0  0  0  0
    5.0771   -4.2982    0.8595 C   0  0  1  0  0  0  0  0  0  0  0  0
    4.7843   -4.2706   -0.6392 C   0  0  0  0  0  0  0  0  0  0  0  0
    4.1843   -3.2542   -1.2839 C   0  0  0  0  0  0  0  0  0  0  0  0
    3.9140   -3.2879   -2.7757 C   0  0  0  0  0  0  0  0  0  0  0  0
    3.7171   -1.9988   -0.5650 C   0  0  0  0  0  0  0  0  0  0  0  0
    4.2403   -1.8891    0.8768 C   0  0  0  0  0  0  0  0  0  0  0  0
    4.2608   -3.2400    1.6360 C   0  0  1  0  0  0  0  0  0  0  0  0
    4.9062   -2.9745    2.8613 O   0  0  0  0  0  0  0  0  0  0  0  0
    5.2977   -9.5536    2.5504 C   0  0  1  0  0  0  0  0  0  0  0  0
    5.7963  -10.8007    2.1041 O   0  0  0  0  0  0  0  0  0  0  0  0
    3.2159   -9.5691    4.3690 C   0  0  1  0  0  0  0  0  0  0  0  0
    1.3851   -2.4604    4.5587 H   0  0  0  0  0  0  0  0  0  0  0  0
    2.9484   -3.2744    4.5010 H   0  0  0  0  0  0  0  0  0  0  0  0
    1.4584   -4.1727    4.1769 H   0  0  0  0  0  0  0  0  0  0  0  0
    2.2701   -3.7820    0.9041 H   0  0  0  0  0  0  0  0  0  0  0  0
    2.9605   -5.9869    0.5101 H   0  0  0  0  0  0  0  0  0  0  0  0
    2.3484   -6.9919    3.8062 H   0  0  0  0  0  0  0  0  0  0  0  0
    0.5601   -6.2480    2.3132 H   0  0  0  0  0  0  0  0  0  0  0  0
    0.6535   -7.7423    1.3981 H   0  0  0  0  0  0  0  0  0  0  0  0
   -1.4081   -7.4999    5.1136 H   0  0  0  0  0  0  0  0  0  0  0  0
   -1.4414   -6.2798    3.8483 H   0  0  0  0  0  0  0  0  0  0  0  0
   -0.0294   -6.4256    4.8894 H   0  0  0  0  0  0  0  0  0  0  0  0
   -1.9925   -9.2661    3.3420 H   0  0  0  0  0  0  0  0  0  0  0  0
   -0.9806   -9.4662    1.9266 H   0  0  0  0  0  0  0  0  0  0  0  0
   -1.9593   -8.0227    2.0977 H   0  0  0  0  0  0  0  0  0  0  0  0
    0.8855   -8.6325    5.1568 H   0  0  0  0  0  0  0  0  0  0  0  0
    0.2635   -9.9897    4.2752 H   0  0  0  0  0  0  0  0  0  0  0  0
    1.0581  -10.2572    1.8789 H   0  0  0  0  0  0  0  0  0  0  0  0
    2.7152   -9.9650    1.5095 H   0  0  0  0  0  0  0  0  0  0  0  0
    1.6032  -12.1486    3.1554 H   0  0  0  0  0  0  0  0  0  0  0  0
    3.2111  -12.0174    2.4813 H   0  0  0  0  0  0  0  0  0  0  0  0
    2.3243  -11.3713    5.2159 H   0  0  0  0  0  0  0  0  0  0  0  0
    4.7652   -7.2964    3.8363 H   0  0  0  0  0  0  0  0  0  0  0  0
    6.8425   -8.4863    5.7607 H   0  0  0  0  0  0  0  0  0  0  0  0
    5.3891   -7.6250    6.2478 H   0  0  0  0  0  0  0  0  0  0  0  0
    6.6534   -6.7874    5.3647 H   0  0  0  0  0  0  0  0  0  0  0  0
    7.2044   -9.0058    3.3331 H   0  0  0  0  0  0  0  0  0  0  0  0
    7.3687   -6.6522    2.3753 H   0  0  0  0  0  0  0  0  0  0  0  0
    7.5568   -7.9423    1.2506 H   0  0  0  0  0  0  0  0  0  0  0  0
    6.3476   -6.3550    0.1241 H   0  0  0  0  0  0  0  0  0  0  0  0
    5.1583   -7.5689    0.4311 H   0  0  0  0  0  0  0  0  0  0  0  0
    5.1884   -5.5822    2.5780 H   0  0  0  0  0  0  0  0  0  0  0  0
    6.1315   -4.0308    0.9379 H   0  0  0  0  0  0  0  0  0  0  0  0
    5.0875   -5.1351   -1.2094 H   0  0  0  0  0  0  0  0  0  0  0  0
    2.8477   -3.1659   -2.9713 H   0  0  0  0  0  0  0  0  0  0  0  0
    4.2268   -4.2395   -3.2101 H   0  0  0  0  0  0  0  0  0  0  0  0
    4.4502   -2.4910   -3.2886 H   0  0  0  0  0  0  0  0  0  0  0  0
    4.0099   -1.1136   -1.1290 H   0  0  0  0  0  0  0  0  0  0  0  0
    2.6272   -2.0170   -0.5550 H   0  0  0  0  0  0  0  0  0  0  0  0
    5.2683   -1.5234    0.8216 H   0  0  0  0  0  0  0  0  0  0  0  0
    3.6852   -1.1263    1.4219 H   0  0  0  0  0  0  0  0  0  0  0  0
    4.3390   -2.4053    3.3468 H   0  0  0  0  0  0  0  0  0  0  0  0
    4.6289   -9.1700    1.7814 H   0  0  0  0  0  0  0  0  0  0  0  0
    5.1299  -11.2079    1.5525 H   0  0  0  0  0  0  0  0  0  0  0  0
    3.0819   -9.1593    5.3673 H   0  0  0  0  0  0  0  0  0  0  0  0
  1  2  1  0
  1 37  1  0
  1 38  1  0
  1 39  1  0
  2  3  1  0
  3 32  1  0
  3  4  1  0
  3 40  1  6
  4  5  1  0
  5 25  1  0
  5  6  1  0
  5 41  1  6
  6  7  1  0
  7 13  1  0
  7  8  1  0
  7 42  1  1
  8  9  1  0
  8 43  1  0
  8 44  1  0
  9 10  1  0
  9 11  1  0
  9 12  1  0
 10 45  1  0
 10 46  1  0
 10 47  1  0
 11 48  1  0
 11 49  1  0
 11 50  1  0
 13 12  1  1
 12 51  1  0
 12 52  1  0
 13 36  1  0
 13 14  1  0
 14 15  1  0
 14 53  1  0
 14 54  1  0
 15 16  1  0
 15 55  1  0
 15 56  1  0
 16 36  1  0
 16 17  1  0
 16 57  1  1
 17 18  1  0
 19 18  1  1
 19 34  1  0
 19 20  1  0
 19 36  1  0
 20 21  1  0
 20 22  1  0
 20 58  1  6
 21 59  1  0
 21 60  1  0
 21 61  1  0
 22 23  1  0
 22 34  1  0
 22 62  1  1
 23 24  1  0
 23 63  1  0
 23 64  1  0
 24 25  1  0
 24 65  1  0
 24 66  1  0
 25 26  1  0
 25 67  1  1
 26 32  1  0
 26 27  1  0
 26 68  1  6
 27 28  2  0
 27 69  1  0
 28 29  1  0
 28 30  1  0
 29 70  1  0
 29 71  1  0
 29 72  1  0
 30 31  1  0
 30 73  1  0
 30 74  1  0
 31 32  1  0
 31 75  1  0
 31 76  1  0
 32 33  1  1
 33 77  1  0
 34 35  1  0
 34 78  1  6
 35 79  1  0
 36 80  1  1
M  END
>  <i_m_ct_stereo_status>  (268) 
1

>  <s_m_source_file>  (268) 
/var/tmp/pbs.5076255.sched01/tmp9n4xeji_/82rcfztp6i.sdf

>  <i_m_source_file_index>  (268) 
34

>  <i_lp_mmshare_version>  (268) 
48012

>  <i_f3d_flags>  (268) 
0

>  <s_epik_input>  (268) 
W0NIM11DKFtDSDNdKShbQ0gyXTEpW0NIMl1bQ0BASF0oW0NAQF0xMjMpT1tDQEBIXTRbQ0BIXShbQ0BASF01W0NAXShbT0hdKShbQ0BASF0oTzQpT1tDSDNdKVtDSDJdW0NIMl1DKD1bQ0hdNSlbQ0gzXSlbQ0gyXVtDSDJdW0NASF02W0NASF0oW0NIM10pW0NAXTcoW0NAQEhdNltPSF0pW0NAQEhdM1tDQEhdKE9PNylbQ0gyXVtDSDJdMg==

>  <s_epik_cmdline>  (268) 
J2VwaWtfcHl0aG9uJywgJy1waHQnLCAnMi4wJywgJy1waCcsICc3LjAnLCAnLXRuJywgJzgnLCAnLW1hJywgJzIwMCcsICctaW1hZScsICc8aW5maWxlLm1hZT4nLCAnLW9tYWUnLCAnPG91dGZpbGUubWFlPic=

>  <r_lp_tautomer_probability>  (268) 
1

>  <r_epik_Ionization_Penalty>  (268) 
1.18878e-07

>  <r_epik_Ionization_Penalty_Charging>  (268) 
0

>  <r_epik_Ionization_Penalty_Neutral>  (268) 
1.18878e-07

>  <r_epik_State_Penalty>  (268) 
-0

>  <r_epik_Charging_Adjusted_Penalty>  (268) 
0

>  <i_epik_Tot_Q>  (268) 
0

>  <i_epik_Tot_abs_Q>  (268) 
0

>  <s_epik_Chemistry_Notes>  (268) 
This compound contains an acetal/aminal-like group ( X-CH(R)-Y where X, Y are N, S, or O) that may be acid/base labile, releasing an aldehyde.

>  <s_lp_Force_Field>  (268) 
OPLS3e

>  <r_lp_Energy>  (268) 
61.6495

>  <b_lp_Chiralities_Consistent>  (268) 
1

>  <s_lp_Variant>  (268) 
84:0-1

>  <s_i_glide_gridfile>  (268) 
pfpi4k_grid

>  <i_i_glide_lignum>  (268) 
34

>  <i_i_glide_rotatable_bonds>  (268) 
3

>  <r_i_docking_score>  (268) 
-2.49229

>  <r_i_glide_ligand_efficiency>  (268) 
-0.0692304

>  <r_i_glide_ligand_efficiency_sa>  (268) 
-0.228594

>  <r_i_glide_ligand_efficiency_ln>  (268) 
-0.543751

>  <r_i_glide_gscore>  (268) 
-2.49229

>  <r_i_glide_lipo>  (268) 
-0.382437

>  <r_i_glide_hbond>  (268) 
0

>  <r_i_glide_metal>  (268) 
-0

>  <r_i_glide_rewards>  (268) 
-0.0486681

>  <r_i_glide_evdw>  (268) 
-27.46

>  <r_i_glide_ecoul>  (268) 
-4.55367

>  <r_i_glide_erotb>  (268) 
0

>  <r_i_glide_esite>  (268) 
-0.00513721

>  <r_i_glide_emodel>  (268) 
-34.0189

>  <r_i_glide_energy>  (268) 
-32.0137

>  <r_i_glide_einternal>  (268) 
6.1014

>  <r_i_glide_intrahb_reward>  (268) 
-0

>  <i_i_glide_confnum>  (268) 
1

>  <i_i_glide_posenum>  (268) 
28

>  <r_i_glide_eff_state_penalty>  (268) 
0

>  <ligand_id>  (268) 
84

>  <original_smiles>  (268) 
COC1OC2OC3CC(C)(C)CC34CCC3OOC5(C(C)C(CCC2C2C=C(C)CCC12O)C5O)C34

>  <smiles>  (268) 
[H]OC1([H])C2([H])C([H])([H])C([H])([H])C3([H])C([H])(OC([H])(OC([H])([H])[H])C4(O[H])C([H])([H])C([H])([H])C(C([H])([H])[H])=C([H])C34[H])OC3([H])C([H])([H])C(C([H])([H])[H])(C([H])([H])[H])C([H])([H])C34C([H])([H])C([H])([H])C3([H])OOC1(C2([H])C([H])([H])[H])C34[H]

$$$$
84:0:1
     RDKit          3D

 80 86  0  0  1  0  0  0  0  0999 V2000
    4.2488   -8.7549    1.2540 C   0  0  0  0  0  0  0  0  0  0  0  0
    3.7650   -8.7764    2.5942 O   0  0  0  0  0  0  0  0  0  0  0  0
    2.6774   -7.9353    2.8308 C   0  0  2  0  0  0  0  0  0  0  0  0
    3.0396   -6.5752    2.8606 O   0  0  0  0  0  0  0  0  0  0  0  0
    1.9440   -5.7074    3.0191 C   0  0  2  0  0  0  0  0  0  0  0  0
    2.2660   -4.3496    2.8462 O   0  0  0  0  0  0  0  0  0  0  0  0
    3.4718   -4.0164    2.1821 C   0  0  1  0  0  0  0  0  0  0  0  0
    3.5295   -4.4736    0.7231 C   0  0  0  0  0  0  0  0  0  0  0  0
    4.7041   -3.6994    0.1028 C   0  0  0  0  0  0  0  0  0  0  0  0
    5.9407   -4.6095   -0.0088 C   0  0  0  0  0  0  0  0  0  0  0  0
    4.3470   -3.1885   -1.3124 C   0  0  0  0  0  0  0  0  0  0  0  0
    4.9648   -2.5394    1.1016 C   0  0  0  0  0  0  0  0  0  0  0  0
    3.7864   -2.4992    2.1079 C   0  0  1  0  0  0  0  0  0  0  0  0
    2.6796   -1.5796    1.5491 C   0  0  0  0  0  0  0  0  0  0  0  0
    3.0263   -0.1536    2.0332 C   0  0  0  0  0  0  0  0  0  0  0  0
    4.1443   -0.3058    3.0759 C   0  0  1  0  0  0  0  0  0  0  0  0
    3.8198    0.3542    4.2894 O   0  0  0  0  0  0  0  0  0  0  0  0
    3.7769   -0.7319    5.3548 O   0  0  0  0  0  0  0  0  0  0  0  0
    3.3386   -1.8951    4.6672 C   0  0  1  0  0  0  0  0  0  0  0  0
    3.3561   -3.1197    5.6090 C   0  0  1  0  0  0  0  0  0  0  0  0
    4.3795   -3.2281    6.7205 C   0  0  0  0  0  0  0  0  0  0  0  0
    1.8762   -2.8588    5.9528 C   0  0  2  0  0  0  0  0  0  0  0  0
    0.8586   -3.9912    6.1626 C   0  0  0  0  0  0  0  0  0  0  0  0
    0.4178   -4.8261    4.9214 C   0  0  0  0  0  0  0  0  0  0  0  0
    1.4309   -5.9148    4.4791 C   0  0  1  0  0  0  0  0  0  0  0  0
    0.8971   -7.3725    4.5639 C   0  0  1  0  0  0  0  0  0  0  0  0
   -0.3853   -7.6383    3.7796 C   0  0  0  0  0  0  0  0  0  0  0  0
   -0.6450   -8.7757    3.1125 C   0  0  0  0  0  0  0  0  0  0  0  0
   -1.9324   -8.9882    2.3495 C   0  0  0  0  0  0  0  0  0  0  0  0
    0.3345   -9.9427    3.0822 C   0  0  0  0  0  0  0  0  0  0  0  0
    1.4884   -9.8016    4.0836 C   0  0  0  0  0  0  0  0  0  0  0  0
    2.0271   -8.3587    4.1908 C   0  0  1  0  0  0  0  0  0  0  0  0
    2.9872   -8.3732    5.2284 O   0  0  0  0  0  0  0  0  0  0  0  0
    1.7911   -1.9328    4.7328 C   0  0  1  0  0  0  0  0  0  0  0  0
    1.0796   -0.7233    4.8989 O   0  0  0  0  0  0  0  0  0  0  0  0
    4.2115   -1.7859    3.4243 C   0  0  1  0  0  0  0  0  0  0  0  0
    5.0747   -9.4543    1.1598 H   0  0  0  0  0  0  0  0  0  0  0  0
    4.6170   -7.7641    0.9793 H   0  0  0  0  0  0  0  0  0  0  0  0
    3.4819   -9.0569    0.5445 H   0  0  0  0  0  0  0  0  0  0  0  0
    1.9661   -8.0708    2.0181 H   0  0  0  0  0  0  0  0  0  0  0  0
    1.1816   -5.9295    2.2749 H   0  0  0  0  0  0  0  0  0  0  0  0
    4.3039   -4.4714    2.7281 H   0  0  0  0  0  0  0  0  0  0  0  0
    3.6414   -5.5528    0.6276 H   0  0  0  0  0  0  0  0  0  0  0  0
    2.5919   -4.2098    0.2265 H   0  0  0  0  0  0  0  0  0  0  0  0
    6.8071   -4.0565   -0.3844 H   0  0  0  0  0  0  0  0  0  0  0  0
    5.7522   -5.4370   -0.6905 H   0  0  0  0  0  0  0  0  0  0  0  0
    6.2170   -5.0398    0.9572 H   0  0  0  0  0  0  0  0  0  0  0  0
    5.1624   -2.6075   -1.7427 H   0  0  0  0  0  0  0  0  0  0  0  0
    3.4595   -2.5506   -1.3085 H   0  0  0  0  0  0  0  0  0  0  0  0
    4.1412   -4.0176   -1.9841 H   0  0  0  0  0  0  0  0  0  0  0  0
    5.8847   -2.7564    1.6408 H   0  0  0  0  0  0  0  0  0  0  0  0
    5.1310   -1.5876    0.5971 H   0  0  0  0  0  0  0  0  0  0  0  0
    2.6197   -1.6001    0.4677 H   0  0  0  0  0  0  0  0  0  0  0  0
    1.6933   -1.8592    1.9064 H   0  0  0  0  0  0  0  0  0  0  0  0
    3.3588    0.4698    1.2012 H   0  0  0  0  0  0  0  0  0  0  0  0
    2.1488    0.3372    2.4532 H   0  0  0  0  0  0  0  0  0  0  0  0
    5.0959    0.0516    2.6713 H   0  0  0  0  0  0  0  0  0  0  0  0
    3.4232   -3.9988    4.9532 H   0  0  0  0  0  0  0  0  0  0  0  0
    4.3257   -2.3871    7.4101 H   0  0  0  0  0  0  0  0  0  0  0  0
    5.3955   -3.2680    6.3291 H   0  0  0  0  0  0  0  0  0  0  0  0
    4.2181   -4.1351    7.3013 H   0  0  0  0  0  0  0  0  0  0  0  0
    1.8877   -2.2107    6.8401 H   0  0  0  0  0  0  0  0  0  0  0  0
    1.2045   -4.6658    6.9391 H   0  0  0  0  0  0  0  0  0  0  0  0
   -0.0484   -3.5429    6.5720 H   0  0  0  0  0  0  0  0  0  0  0  0
   -0.4957   -5.3256    5.2414 H   0  0  0  0  0  0  0  0  0  0  0  0
    0.0978   -4.1920    4.1006 H   0  0  0  0  0  0  0  0  0  0  0  0
    2.2975   -5.8452    5.1265 H   0  0  0  0  0  0  0  0  0  0  0  0
    0.6271   -7.5548    5.6029 H   0  0  0  0  0  0  0  0  0  0  0  0
   -1.1278   -6.8582    3.7884 H   0  0  0  0  0  0  0  0  0  0  0  0
   -1.7242   -9.2133    1.3045 H   0  0  0  0  0  0  0  0  0  0  0  0
   -2.5644   -8.0951    2.3810 H   0  0  0  0  0  0  0  0  0  0  0  0
   -2.5012   -9.8126    2.7702 H   0  0  0  0  0  0  0  0  0  0  0  0
   -0.1816  -10.8788    3.2870 H   0  0  0  0  0  0  0  0  0  0  0  0
    0.7299  -10.0238    2.0690 H   0  0  0  0  0  0  0  0  0  0  0  0
    1.1062  -10.0931    5.0663 H   0  0  0  0  0  0  0  0  0  0  0  0
    2.2753  -10.5193    3.8532 H   0  0  0  0  0  0  0  0  0  0  0  0
    3.6336   -9.0103    4.9933 H   0  0  0  0  0  0  0  0  0  0  0  0
    1.3596   -2.4612    3.8863 H   0  0  0  0  0  0  0  0  0  0  0  0
    1.1298   -0.2600    4.0827 H   0  0  0  0  0  0  0  0  0  0  0  0
    5.2310   -2.0486    3.6903 H   0  0  0  0  0  0  0  0  0  0  0  0
  1  2  1  0
  1 37  1  0
  1 38  1  0
  1 39  1  0
  2  3  1  0
  3 32  1  0
  3  4  1  0
  3 40  1  6
  4  5  1  0
  5 25  1  0
  5  6  1  0
  5 41  1  6
  6  7  1  0
  7 13  1  0
  7  8  1  0
  7 42  1  1
  8  9  1  0
  8 43  1  0
  8 44  1  0
  9 10  1  0
  9 11  1  0
  9 12  1  0
 10 45  1  0
 10 46  1  0
 10 47  1  0
 11 48  1  0
 11 49  1  0
 11 50  1  0
 13 12  1  6
 12 51  1  0
 12 52  1  0
 13 36  1  0
 13 14  1  0
 14 15  1  0
 14 53  1  0
 14 54  1  0
 15 16  1  0
 15 55  1  0
 15 56  1  0
 16 36  1  0
 16 17  1  0
 16 57  1  6
 17 18  1  0
 19 18  1  1
 19 34  1  0
 19 20  1  0
 19 36  1  0
 20 21  1  0
 20 22  1  0
 20 58  1  6
 21 59  1  0
 21 60  1  0
 21 61  1  0
 22 23  1  0
 22 34  1  0
 22 62  1  1
 23 24  1  0
 23 63  1  0
 23 64  1  0
 24 25  1  0
 24 65  1  0
 24 66  1  0
 25 26  1  0
 25 67  1  1
 26 32  1  0
 26 27  1  0
 26 68  1  1
 27 28  2  0
 27 69  1  0
 28 29  1  0
 28 30  1  0
 29 70  1  0
 29 71  1  0
 29 72  1  0
 30 31  1  0
 30 73  1  0
 30 74  1  0
 31 32  1  0
 31 75  1  0
 31 76  1  0
 32 33  1  1
 33 77  1  0
 34 35  1  0
 34 78  1  6
 35 79  1  0
 36 80  1  1
M  END
>  <i_m_ct_stereo_status>  (269) 
1

>  <s_m_source_file>  (269) 
/var/tmp/pbs.5076255.sched01/tmp9n4xeji_/82rcfztp6i.sdf

>  <i_m_source_file_index>  (269) 
34

>  <i_lp_mmshare_version>  (269) 
48012

>  <i_f3d_flags>  (269) 
0

>  <s_epik_input>  (269) 
W0NIM11DKFtDSDNdKShbQ0gyXTEpW0NIMl1bQ0BASF0oW0NAQF0xMjMpT1tDQEBIXTRbQ0BIXShbQ0BASF01W0NAXShbT0hdKShbQ0BASF0oTzQpT1tDSDNdKVtDSDJdW0NIMl1DKD1bQ0hdNSlbQ0gzXSlbQ0gyXVtDSDJdW0NASF02W0NASF0oW0NIM10pW0NAXTcoW0NAQEhdNltPSF0pW0NAQEhdM1tDQEhdKE9PNylbQ0gyXVtDSDJdMg==

>  <s_epik_cmdline>  (269) 
J2VwaWtfcHl0aG9uJywgJy1waHQnLCAnMi4wJywgJy1waCcsICc3LjAnLCAnLXRuJywgJzgnLCAnLW1hJywgJzIwMCcsICctaW1hZScsICc8aW5maWxlLm1hZT4nLCAnLW9tYWUnLCAnPG91dGZpbGUubWFlPic=

>  <r_lp_tautomer_probability>  (269) 
1

>  <r_epik_Ionization_Penalty>  (269) 
1.18878e-07

>  <r_epik_Ionization_Penalty_Charging>  (269) 
0

>  <r_epik_Ionization_Penalty_Neutral>  (269) 
1.18878e-07

>  <r_epik_State_Penalty>  (269) 
-0

>  <r_epik_Charging_Adjusted_Penalty>  (269) 
0

>  <i_epik_Tot_Q>  (269) 
0

>  <i_epik_Tot_abs_Q>  (269) 
0

>  <s_epik_Chemistry_Notes>  (269) 
This compound contains an acetal/aminal-like group ( X-CH(R)-Y where X, Y are N, S, or O) that may be acid/base labile, releasing an aldehyde.

>  <s_lp_Force_Field>  (269) 
OPLS3e

>  <r_lp_Energy>  (269) 
61.6495

>  <b_lp_Chiralities_Consistent>  (269) 
1

>  <s_lp_Variant>  (269) 
84:0-1

>  <s_i_glide_gridfile>  (269) 
pfpi4k_grid

>  <i_i_glide_lignum>  (269) 
34

>  <i_i_glide_rotatable_bonds>  (269) 
3

>  <r_i_docking_score>  (269) 
-1.79058

>  <r_i_glide_ligand_efficiency>  (269) 
-0.0497383

>  <r_i_glide_ligand_efficiency_sa>  (269) 
-0.164232

>  <r_i_glide_ligand_efficiency_ln>  (269) 
-0.390656

>  <r_i_glide_gscore>  (269) 
-1.79058

>  <r_i_glide_lipo>  (269) 
-0.465167

>  <r_i_glide_hbond>  (269) 
0

>  <r_i_glide_metal>  (269) 
-0

>  <r_i_glide_rewards>  (269) 
0

>  <r_i_glide_evdw>  (269) 
-25.7705

>  <r_i_glide_ecoul>  (269) 
-0.136408

>  <r_i_glide_erotb>  (269) 
0

>  <r_i_glide_esite>  (269) 
-0.0164247

>  <r_i_glide_emodel>  (269) 
-28.8028

>  <r_i_glide_energy>  (269) 
-25.9069

>  <r_i_glide_einternal>  (269) 
1.44005

>  <r_i_glide_intrahb_reward>  (269) 
-0

>  <i_i_glide_confnum>  (269) 
2

>  <i_i_glide_posenum>  (269) 
15

>  <r_i_glide_eff_state_penalty>  (269) 
0

>  <ligand_id>  (269) 
84

>  <original_smiles>  (269) 
COC1OC2OC3CC(C)(C)CC34CCC3OOC5(C(C)C(CCC2C2C=C(C)CCC12O)C5O)C34

>  <smiles>  (269) 
[H]OC1([H])C2([H])C([H])([H])C([H])([H])C3([H])C([H])(OC([H])(OC([H])([H])[H])C4(O[H])C([H])([H])C([H])([H])C(C([H])([H])[H])=C([H])C34[H])OC3([H])C([H])([H])C(C([H])([H])[H])(C([H])([H])[H])C([H])([H])C34C([H])([H])C([H])([H])C3([H])OOC1(C2([H])C([H])([H])[H])C34[H]

$$$$
84:0:2
     RDKit          3D

 80 86  0  0  1  0  0  0  0  0999 V2000
    4.5293   -0.0909    3.0271 C   0  0  0  0  0  0  0  0  0  0  0  0
    5.3384   -0.8345    2.1317 O   0  0  0  0  0  0  0  0  0  0  0  0
    4.6644   -1.8692    1.4735 C   0  0  2  0  0  0  0  0  0  0  0  0
    4.1649   -2.8429    2.3565 O   0  0  0  0  0  0  0  0  0  0  0  0
    3.3903   -3.8216    1.7120 C   0  0  2  0  0  0  0  0  0  0  0  0
    2.7002   -4.6628    2.5987 O   0  0  0  0  0  0  0  0  0  0  0  0
    2.5058   -4.2254    3.9379 C   0  0  1  0  0  0  0  0  0  0  0  0
    1.6420   -2.9668    4.0617 C   0  0  0  0  0  0  0  0  0  0  0  0
    1.2441   -2.8994    5.5526 C   0  0  0  0  0  0  0  0  0  0  0  0
    2.1129   -1.8582    6.2885 C   0  0  0  0  0  0  0  0  0  0  0  0
   -0.2335   -2.4855    5.7120 C   0  0  0  0  0  0  0  0  0  0  0  0
    1.5248   -4.3273    6.0845 C   0  0  0  0  0  0  0  0  0  0  0  0
    1.8073   -5.2464    4.8674 C   0  0  1  0  0  0  0  0  0  0  0  0
    0.4697   -5.8469    4.3733 C   0  0  0  0  0  0  0  0  0  0  0  0
    0.2640   -7.1351    5.1893 C   0  0  0  0  0  0  0  0  0  0  0  0
    1.5839   -7.4143    5.9318 C   0  0  1  0  0  0  0  0  0  0  0  0
    2.0444   -8.7421    5.6964 O   0  0  0  0  0  0  0  0  0  0  0  0
    3.3849   -8.5810    4.9799 O   0  0  0  0  0  0  0  0  0  0  0  0
    3.2822   -7.3867    4.2513 C   0  0  1  0  0  0  0  0  0  0  0  0
    4.6167   -7.0383    3.5740 C   0  0  1  0  0  0  0  0  0  0  0  0
    5.9474   -7.4163    4.2421 C   0  0  0  0  0  0  0  0  0  0  0  0
    4.1702   -7.8009    2.3089 C   0  0  2  0  0  0  0  0  0  0  0  0
    4.4918   -7.2944    0.8823 C   0  0  0  0  0  0  0  0  0  0  0  0
    3.7956   -6.0091    0.3856 C   0  0  0  0  0  0  0  0  0  0  0  0
    4.3996   -4.6752    0.8998 C   0  0  1  0  0  0  0  0  0  0  0  0
    4.9892   -3.7585   -0.2080 C   0  0  1  0  0  0  0  0  0  0  0  0
    4.0137   -3.3624   -1.3055 C   0  0  0  0  0  0  0  0  0  0  0  0
    3.9829   -2.1541   -1.9007 C   0  0  0  0  0  0  0  0  0  0  0  0
    2.9974   -1.8201   -2.9955 C   0  0  0  0  0  0  0  0  0  0  0  0
    4.9398   -1.0350   -1.5168 C   0  0  0  0  0  0  0  0  0  0  0  0
    6.0912   -1.5011   -0.6084 C   0  0  0  0  0  0  0  0  0  0  0  0
    5.6506   -2.5285    0.4563 C   0  0  1  0  0  0  0  0  0  0  0  0
    6.8238   -2.9751    1.0890 O   0  0  0  0  0  0  0  0  0  0  0  0
    2.7336   -7.7496    2.8490 C   0  0  1  0  0  0  0  0  0  0  0  0
    1.9324   -8.9106    2.6949 O   0  0  0  0  0  0  0  0  0  0  0  0
    2.6142   -6.4873    5.3062 C   0  0  1  0  0  0  0  0  0  0  0  0
    5.1270    0.6988    3.4815 H   0  0  0  0  0  0  0  0  0  0  0  0
    4.1539   -0.7119    3.8417 H   0  0  0  0  0  0  0  0  0  0  0  0
    3.6833    0.3804    2.5216 H   0  0  0  0  0  0  0  0  0  0  0  0
    3.8206   -1.4119    0.9482 H   0  0  0  0  0  0  0  0  0  0  0  0
    2.6238   -3.3621    1.0763 H   0  0  0  0  0  0  0  0  0  0  0  0
    3.4789   -4.0273    4.3891 H   0  0  0  0  0  0  0  0  0  0  0  0
    2.1605   -2.0715    3.7212 H   0  0  0  0  0  0  0  0  0  0  0  0
    0.7560   -3.0707    3.4355 H   0  0  0  0  0  0  0  0  0  0  0  0
    1.8939   -1.8450    7.3594 H   0  0  0  0  0  0  0  0  0  0  0  0
    1.9402   -0.8486    5.9072 H   0  0  0  0  0  0  0  0  0  0  0  0
    3.1782   -2.0698    6.1730 H   0  0  0  0  0  0  0  0  0  0  0  0
   -0.5277   -2.4706    6.7624 H   0  0  0  0  0  0  0  0  0  0  0  0
   -0.9064   -3.1653    5.1985 H   0  0  0  0  0  0  0  0  0  0  0  0
   -0.4134   -1.4913    5.2994 H   0  0  0  0  0  0  0  0  0  0  0  0
    2.4165   -4.2846    6.7096 H   0  0  0  0  0  0  0  0  0  0  0  0
    0.7247   -4.6910    6.7283 H   0  0  0  0  0  0  0  0  0  0  0  0
   -0.3765   -5.1792    4.4988 H   0  0  0  0  0  0  0  0  0  0  0  0
    0.5045   -6.0923    3.3163 H   0  0  0  0  0  0  0  0  0  0  0  0
   -0.5556   -7.0195    5.9031 H   0  0  0  0  0  0  0  0  0  0  0  0
   -0.0074   -7.9750    4.5424 H   0  0  0  0  0  0  0  0  0  0  0  0
    1.4708   -7.2176    6.9988 H   0  0  0  0  0  0  0  0  0  0  0  0
    4.5889   -5.9809    3.3892 H   0  0  0  0  0  0  0  0  0  0  0  0
    6.0189   -8.4810    4.4149 H   0  0  0  0  0  0  0  0  0  0  0  0
    6.0646   -6.9078    5.1950 H   0  0  0  0  0  0  0  0  0  0  0  0
    6.7777   -7.1239    3.6065 H   0  0  0  0  0  0  0  0  0  0  0  0
    4.5197   -8.8167    2.4336 H   0  0  0  0  0  0  0  0  0  0  0  0
    5.5717   -7.1881    0.7779 H   0  0  0  0  0  0  0  0  0  0  0  0
    4.2295   -8.0983    0.1966 H   0  0  0  0  0  0  0  0  0  0  0  0
    3.9531   -6.0326   -0.6910 H   0  0  0  0  0  0  0  0  0  0  0  0
    2.7072   -6.0512    0.4916 H   0  0  0  0  0  0  0  0  0  0  0  0
    5.2089   -4.9437    1.5833 H   0  0  0  0  0  0  0  0  0  0  0  0
    5.7633   -4.3214   -0.7173 H   0  0  0  0  0  0  0  0  0  0  0  0
    3.3208   -4.1250   -1.6242 H   0  0  0  0  0  0  0  0  0  0  0  0
    2.4104   -0.9485   -2.7097 H   0  0  0  0  0  0  0  0  0  0  0  0
    2.3070   -2.6467   -3.1708 H   0  0  0  0  0  0  0  0  0  0  0  0
    3.5010   -1.5923   -3.9360 H   0  0  0  0  0  0  0  0  0  0  0  0
    5.3442   -0.5727   -2.4160 H   0  0  0  0  0  0  0  0  0  0  0  0
    4.3574   -0.2667   -1.0062 H   0  0  0  0  0  0  0  0  0  0  0  0
    6.8344   -1.9825   -1.2420 H   0  0  0  0  0  0  0  0  0  0  0  0
    6.5858   -0.6447   -0.1416 H   0  0  0  0  0  0  0  0  0  0  0  0
    6.5502   -3.4909    1.8419 H   0  0  0  0  0  0  0  0  0  0  0  0
    2.2063   -6.9287    2.4128 H   0  0  0  0  0  0  0  0  0  0  0  0
    2.4533   -9.6423    3.0047 H   0  0  0  0  0  0  0  0  0  0  0  0
    3.3677   -6.2337    6.0519 H   0  0  0  0  0  0  0  0  0  0  0  0
  1  2  1  0
  1 37  1  0
  1 38  1  0
  1 39  1  0
  2  3  1  0
  3 32  1  0
  3  4  1  0
  3 40  1  6
  4  5  1  0
  5 25  1  0
  5  6  1  0
  5 41  1  6
  6  7  1  0
  7 13  1  0
  7  8  1  0
  7 42  1  1
  8  9  1  0
  8 43  1  0
  8 44  1  0
  9 10  1  0
  9 11  1  0
  9 12  1  0
 10 45  1  0
 10 46  1  0
 10 47  1  0
 11 48  1  0
 11 49  1  0
 11 50  1  0
 13 12  1  1
 12 51  1  0
 12 52  1  0
 13 36  1  0
 13 14  1  0
 14 15  1  0
 14 53  1  0
 14 54  1  0
 15 16  1  0
 15 55  1  0
 15 56  1  0
 16 36  1  0
 16 17  1  0
 16 57  1  1
 17 18  1  0
 19 18  1  1
 19 34  1  0
 19 20  1  0
 19 36  1  0
 20 21  1  0
 20 22  1  0
 20 58  1  6
 21 59  1  0
 21 60  1  0
 21 61  1  0
 22 23  1  0
 22 34  1  0
 22 62  1  1
 23 24  1  0
 23 63  1  0
 23 64  1  0
 24 25  1  0
 24 65  1  0
 24 66  1  0
 25 26  1  0
 25 67  1  1
 26 32  1  0
 26 27  1  0
 26 68  1  6
 27 28  2  0
 27 69  1  0
 28 29  1  0
 28 30  1  0
 29 70  1  0
 29 71  1  0
 29 72  1  0
 30 31  1  0
 30 73  1  0
 30 74  1  0
 31 32  1  0
 31 75  1  0
 31 76  1  0
 32 33  1  1
 33 77  1  0
 34 35  1  0
 34 78  1  6
 35 79  1  0
 36 80  1  1
M  END
>  <i_m_ct_stereo_status>  (270) 
1

>  <s_m_source_file>  (270) 
/var/tmp/pbs.5076255.sched01/tmp9n4xeji_/82rcfztp6i.sdf

>  <i_m_source_file_index>  (270) 
34

>  <i_lp_mmshare_version>  (270) 
48012

>  <i_f3d_flags>  (270) 
0

>  <s_epik_input>  (270) 
W0NIM11DKFtDSDNdKShbQ0gyXTEpW0NIMl1bQ0BASF0oW0NAQF0xMjMpT1tDQEBIXTRbQ0BIXShbQ0BASF01W0NAXShbT0hdKShbQ0BASF0oTzQpT1tDSDNdKVtDSDJdW0NIMl1DKD1bQ0hdNSlbQ0gzXSlbQ0gyXVtDSDJdW0NASF02W0NASF0oW0NIM10pW0NAXTcoW0NAQEhdNltPSF0pW0NAQEhdM1tDQEhdKE9PNylbQ0gyXVtDSDJdMg==

>  <s_epik_cmdline>  (270) 
J2VwaWtfcHl0aG9uJywgJy1waHQnLCAnMi4wJywgJy1waCcsICc3LjAnLCAnLXRuJywgJzgnLCAnLW1hJywgJzIwMCcsICctaW1hZScsICc8aW5maWxlLm1hZT4nLCAnLW9tYWUnLCAnPG91dGZpbGUubWFlPic=

>  <r_lp_tautomer_probability>  (270) 
1

>  <r_epik_Ionization_Penalty>  (270) 
1.18878e-07

>  <r_epik_Ionization_Penalty_Charging>  (270) 
0

>  <r_epik_Ionization_Penalty_Neutral>  (270) 
1.18878e-07

>  <r_epik_State_Penalty>  (270) 
-0

>  <r_epik_Charging_Adjusted_Penalty>  (270) 
0

>  <i_epik_Tot_Q>  (270) 
0

>  <i_epik_Tot_abs_Q>  (270) 
0

>  <s_epik_Chemistry_Notes>  (270) 
This compound contains an acetal/aminal-like group ( X-CH(R)-Y where X, Y are N, S, or O) that may be acid/base labile, releasing an aldehyde.

>  <s_lp_Force_Field>  (270) 
OPLS3e

>  <r_lp_Energy>  (270) 
61.6495

>  <b_lp_Chiralities_Consistent>  (270) 
1

>  <s_lp_Variant>  (270) 
84:0-1

>  <s_i_glide_gridfile>  (270) 
pfpi4k_grid

>  <i_i_glide_lignum>  (270) 
34

>  <i_i_glide_rotatable_bonds>  (270) 
3

>  <r_i_docking_score>  (270) 
-1.755

>  <r_i_glide_ligand_efficiency>  (270) 
-0.04875

>  <r_i_glide_ligand_efficiency_sa>  (270) 
-0.160969

>  <r_i_glide_ligand_efficiency_ln>  (270) 
-0.382893

>  <r_i_glide_gscore>  (270) 
-1.755

>  <r_i_glide_lipo>  (270) 
-0.361717

>  <r_i_glide_hbond>  (270) 
0

>  <r_i_glide_metal>  (270) 
-0

>  <r_i_glide_rewards>  (270) 
-0.0471156

>  <r_i_glide_evdw>  (270) 
-24.544

>  <r_i_glide_ecoul>  (270) 
-0.793128

>  <r_i_glide_erotb>  (270) 
0

>  <r_i_glide_esite>  (270) 
0

>  <r_i_glide_emodel>  (270) 
-28.8439

>  <r_i_glide_energy>  (270) 
-25.3371

>  <r_i_glide_einternal>  (270) 
0.0322096

>  <r_i_glide_intrahb_reward>  (270) 
-0

>  <i_i_glide_confnum>  (270) 
1

>  <i_i_glide_posenum>  (270) 
4

>  <r_i_glide_eff_state_penalty>  (270) 
0

>  <ligand_id>  (270) 
84

>  <original_smiles>  (270) 
COC1OC2OC3CC(C)(C)CC34CCC3OOC5(C(C)C(CCC2C2C=C(C)CCC12O)C5O)C34

>  <smiles>  (270) 
[H]OC1([H])C2([H])C([H])([H])C([H])([H])C3([H])C([H])(OC([H])(OC([H])([H])[H])C4(O[H])C([H])([H])C([H])([H])C(C([H])([H])[H])=C([H])C34[H])OC3([H])C([H])([H])C(C([H])([H])[H])(C([H])([H])[H])C([H])([H])C34C([H])([H])C([H])([H])C3([H])OOC1(C2([H])C([H])([H])[H])C34[H]

$$$$
86:1:0
     RDKit          3D

 76 83  0  0  1  0  0  0  0  0999 V2000
    5.0374   -1.6415    5.6158 C   0  0  0  0  0  0  0  0  0  0  0  0
    4.8879   -2.8182    4.8366 O   0  0  0  0  0  0  0  0  0  0  0  0
    3.9361   -2.8409    3.7653 C   0  0  2  0  0  0  0  0  0  0  0  0
    2.7488   -1.8393    3.8340 C   0  0  0  0  0  0  0  0  0  0  0  0
    2.1069   -2.0242    2.4611 C   0  0  0  0  0  0  0  0  0  0  0  0
    3.3200   -1.9038    1.5022 C   0  0  2  0  0  0  0  0  0  0  0  0
    3.0792   -0.3744    1.1265 C   0  0  0  0  0  0  0  0  0  0  0  0
    3.3701   -2.7275    0.1789 C   0  0  2  0  0  0  0  0  0  0  0  0
    2.6767   -4.1563    0.1339 C   0  0  0  0  0  0  0  0  0  0  0  0
    2.3934   -5.0738    1.3809 C   0  0  0  0  0  0  0  0  0  0  0  0
    3.4950   -5.0849    2.4282 C   0  0  2  0  0  0  0  0  0  0  0  0
    3.8812   -5.7819    3.6947 C   0  0  2  0  0  0  0  0  0  0  0  0
    5.3714   -5.9951    4.0116 C   0  0  0  0  0  0  0  0  0  0  0  0
    3.1029   -6.9516    4.3458 C   0  0  1  0  0  0  0  0  0  0  0  0
    3.1232   -6.5248    5.7440 N   0  0  0  0  0  0  0  0  0  0  0  0
    3.2748   -7.5271    6.8041 C   0  0  0  0  0  0  0  0  0  0  0  0
    1.8462   -5.8802    5.4894 C   0  0  1  0  0  0  0  0  0  0  0  0
    2.1269   -4.4640    4.8791 C   0  0  1  0  0  0  0  0  0  0  0  0
    2.4098   -3.7556    6.0774 O   0  0  0  0  0  0  0  0  0  0  0  0
    3.3117   -4.3362    3.8028 C   0  0  1  0  0  0  0  0  0  0  0  0
    1.5413   -7.0274    4.5141 C   0  0  2  0  0  0  0  0  0  0  0  0
    0.9069   -8.3381    5.0524 C   0  0  0  0  0  0  0  0  0  0  0  0
    0.0272   -8.8330    4.0641 O   0  0  0  0  0  0  0  0  0  0  0  0
   -0.2556   -7.9536    3.1551 C   0  0  0  0  0  0  0  0  0  0  0  0
   -1.0067   -8.0782    2.1910 O   0  0  0  0  0  0  0  0  0  0  0  0
    0.5197   -6.6893    3.4355 C   0  0  0  0  0  0  0  0  0  0  0  0
    4.8450   -2.6930   -0.4123 C   0  0  1  0  0  0  0  0  0  0  0  0
    4.8340   -3.1474   -1.8988 C   0  0  0  0  0  0  0  0  0  0  0  0
    5.5783   -1.3048   -0.3642 C   0  0  0  0  0  0  0  0  0  0  0  0
    6.1312   -0.6989    0.9886 C   0  0  0  0  0  0  0  0  0  0  0  0
    5.4472   -0.9913    2.3854 C   0  0  0  0  0  0  0  0  0  0  0  0
    4.5981   -2.2941    2.4045 C   0  0  1  0  0  0  0  0  0  0  0  0
    5.7299   -3.2722    1.9192 C   0  0  0  0  0  0  0  0  0  0  0  0
    5.6938   -3.6219    0.4425 C   0  0  0  0  0  0  0  0  0  0  0  0
    6.3141   -4.5891    0.0085 O   0  0  0  0  0  0  0  0  0  0  0  0
    5.8212   -1.8190    6.3537 H   0  0  0  0  0  0  0  0  0  0  0  0
    4.1213   -1.3922    6.1530 H   0  0  0  0  0  0  0  0  0  0  0  0
    5.3407   -0.7750    5.0311 H   0  0  0  0  0  0  0  0  0  0  0  0
    2.0103   -1.9496    4.6233 H   0  0  0  0  0  0  0  0  0  0  0  0
    3.1027   -0.8201    3.9531 H   0  0  0  0  0  0  0  0  0  0  0  0
    1.5775   -2.9555    2.4282 H   0  0  0  0  0  0  0  0  0  0  0  0
    1.3099   -1.2958    2.2936 H   0  0  0  0  0  0  0  0  0  0  0  0
    3.8540    0.1680    0.6056 H   0  0  0  0  0  0  0  0  0  0  0  0
    2.8733    0.2487    1.9994 H   0  0  0  0  0  0  0  0  0  0  0  0
    2.2070   -0.2704    0.4837 H   0  0  0  0  0  0  0  0  0  0  0  0
    2.7840   -2.1587   -0.5468 H   0  0  0  0  0  0  0  0  0  0  0  0
    1.7182   -3.9934   -0.3512 H   0  0  0  0  0  0  0  0  0  0  0  0
    3.1856   -4.7825   -0.5974 H   0  0  0  0  0  0  0  0  0  0  0  0
    1.4389   -4.8371    1.8261 H   0  0  0  0  0  0  0  0  0  0  0  0
    2.2962   -6.0889    0.9934 H   0  0  0  0  0  0  0  0  0  0  0  0
    4.3798   -5.2874    1.8567 H   0  0  0  0  0  0  0  0  0  0  0  0
    5.5096   -6.6284    4.8811 H   0  0  0  0  0  0  0  0  0  0  0  0
    5.8624   -5.0609    4.2703 H   0  0  0  0  0  0  0  0  0  0  0  0
    5.8895   -6.4717    3.1799 H   0  0  0  0  0  0  0  0  0  0  0  0
    3.5619   -7.9225    4.1919 H   0  0  0  0  0  0  0  0  0  0  0  0
    2.9641   -7.1073    7.7625 H   0  0  0  0  0  0  0  0  0  0  0  0
    4.3311   -7.7864    6.9024 H   0  0  0  0  0  0  0  0  0  0  0  0
    2.7456   -8.4632    6.6546 H   0  0  0  0  0  0  0  0  0  0  0  0
    1.2052   -5.8664    6.3732 H   0  0  0  0  0  0  0  0  0  0  0  0
    1.2133   -4.0658    4.4402 H   0  0  0  0  0  0  0  0  0  0  0  0
    3.1681   -4.1633    6.4649 H   0  0  0  0  0  0  0  0  0  0  0  0
    1.6267   -9.1351    5.2371 H   0  0  0  0  0  0  0  0  0  0  0  0
    0.3175   -8.1608    5.9547 H   0  0  0  0  0  0  0  0  0  0  0  0
   -0.1857   -5.9371    3.7824 H   0  0  0  0  0  0  0  0  0  0  0  0
    0.9374   -6.4639    2.4890 H   0  0  0  0  0  0  0  0  0  0  0  0
    4.1118   -2.5701   -2.4753 H   0  0  0  0  0  0  0  0  0  0  0  0
    4.5822   -4.1970   -2.0238 H   0  0  0  0  0  0  0  0  0  0  0  0
    5.8071   -3.0246   -2.3743 H   0  0  0  0  0  0  0  0  0  0  0  0
    6.4643   -1.4043   -0.9894 H   0  0  0  0  0  0  0  0  0  0  0  0
    4.9897   -0.5747   -0.9158 H   0  0  0  0  0  0  0  0  0  0  0  0
    7.1750   -1.0033    1.0823 H   0  0  0  0  0  0  0  0  0  0  0  0
    6.1817    0.3800    0.8574 H   0  0  0  0  0  0  0  0  0  0  0  0
    6.2561   -1.0718    3.1070 H   0  0  0  0  0  0  0  0  0  0  0  0
    4.9050   -0.1212    2.7525 H   0  0  0  0  0  0  0  0  0  0  0  0
    6.7226   -2.8626    2.0811 H   0  0  0  0  0  0  0  0  0  0  0  0
    5.8191   -4.1633    2.5027 H   0  0  0  0  0  0  0  0  0  0  0  0
  1  2  1  0
  1 36  1  0
  1 37  1  0
  1 38  1  0
  3  2  1  1
 20  3  1  6
  3 32  1  0
  3  4  1  0
  4  5  1  0
  4 39  1  0
  4 40  1  0
  5  6  1  0
  5 41  1  0
  5 42  1  0
  6 32  1  0
  6  7  1  6
  6  8  1  0
  7 43  1  0
  7 44  1  0
  7 45  1  0
  8  9  1  0
  8 27  1  0
  8 46  1  6
  9 10  1  0
  9 47  1  0
  9 48  1  0
 10 11  1  0
 10 49  1  0
 10 50  1  0
 11 20  1  0
 11 12  1  0
 11 51  1  6
 12 20  1  0
 12 13  1  6
 12 14  1  0
 13 52  1  0
 13 53  1  0
 13 54  1  0
 14 21  1  0
 14 15  1  0
 14 55  1  1
 15 16  1  0
 15 17  1  0
 16 56  1  0
 16 57  1  0
 16 58  1  0
 17 18  1  0
 17 21  1  0
 17 59  1  1
 18 19  1  0
 18 20  1  0
 18 60  1  6
 19 61  1  0
 21 26  1  6
 21 22  1  0
 22 23  1  0
 22 62  1  0
 22 63  1  0
 23 24  1  0
 24 25  2  0
 24 26  1  0
 26 64  1  0
 26 65  1  0
 27 34  1  0
 27 28  1  6
 27 29  1  0
 28 66  1  0
 28 67  1  0
 28 68  1  0
 29 30  1  0
 29 69  1  0
 29 70  1  0
 30 31  1  0
 30 71  1  0
 30 72  1  0
 32 31  1  1
 31 73  1  0
 31 74  1  0
 32 33  1  0
 33 34  1  0
 33 75  1  0
 33 76  1  0
 34 35  2  0
M  END
>  <i_m_ct_stereo_status>  (271) 
1

>  <s_m_source_file>  (271) 
/var/tmp/pbs.5076255.sched01/tmp9n4xeji_/82rcfztp6i.sdf

>  <i_m_source_file_index>  (271) 
37

>  <i_lp_mmshare_version>  (271) 
48012

>  <i_f3d_flags>  (271) 
0

>  <s_epik_input>  (271) 
W0NIM11PW0NAXTEoW0NAQF0yMzQpW0NAQF01NltDQF0oW0NIM10pKFtDSDJdW0NIMl0xKVtDQEBIXShbQ0BdKFtDSDNdKShDKD1PKVtDSDJdNilbQ0gyXVtDSDJdW0NIMl01KVtDSDJdW0NIMl1bQ0BASF0yW0NAXTMoW0NIM10pW0NAQEhdN1tDQF04KFtDQEBIXShON1tDSDNdKVtDQEhdNFtPSF0pW0NIMl1PQyg9TylbQ0gyXTg=

>  <s_epik_cmdline>  (271) 
J2VwaWtfcHl0aG9uJywgJy1waHQnLCAnMi4wJywgJy1waCcsICc3LjAnLCAnLXRuJywgJzgnLCAnLW1hJywgJzIwMCcsICctaW1hZScsICc8aW5maWxlLm1hZT4nLCAnLW9tYWUnLCAnPG91dGZpbGUubWFlPic=

>  <r_lp_tautomer_probability>  (271) 
0.99995

>  <r_epik_Ionization_Penalty>  (271) 
2.13513

>  <r_epik_Ionization_Penalty_Charging>  (271) 
0

>  <r_epik_Ionization_Penalty_Neutral>  (271) 
2.13513

>  <r_epik_State_Penalty>  (271) 
2.27381

>  <r_epik_Charging_Adjusted_Penalty>  (271) 
2.27381

>  <i_epik_Tot_Q>  (271) 
0

>  <i_epik_Tot_abs_Q>  (271) 
0

>  <s_epik_Chemistry_Notes>  (271) 
This compound has an ester and may undergo hydrolysis at high or low pH.

>  <s_lp_Force_Field>  (271) 
OPLS3e

>  <r_lp_Energy>  (271) 
199.691

>  <b_lp_Chiralities_Consistent>  (271) 
1

>  <s_lp_Variant>  (271) 
86:0-2

>  <s_i_glide_gridfile>  (271) 
pfpi4k_grid

>  <i_i_glide_lignum>  (271) 
37

>  <i_i_glide_rotatable_bonds>  (271) 
2

>  <r_i_docking_score>  (271) 
-1.87133

>  <r_i_glide_ligand_efficiency>  (271) 
-0.0534666

>  <r_i_glide_ligand_efficiency_sa>  (271) 
-0.174893

>  <r_i_glide_ligand_efficiency_ln>  (271) 
-0.410799

>  <r_i_glide_gscore>  (271) 
-1.87133

>  <r_i_glide_lipo>  (271) 
-0.336131

>  <r_i_glide_hbond>  (271) 
0

>  <r_i_glide_metal>  (271) 
-0

>  <r_i_glide_rewards>  (271) 
-0.196431

>  <r_i_glide_evdw>  (271) 
-23.7785

>  <r_i_glide_ecoul>  (271) 
-0.680973

>  <r_i_glide_erotb>  (271) 
0

>  <r_i_glide_esite>  (271) 
-0.0477002

>  <r_i_glide_emodel>  (271) 
-25.2511

>  <r_i_glide_energy>  (271) 
-24.4594

>  <r_i_glide_einternal>  (271) 
0.00300929

>  <r_i_glide_intrahb_reward>  (271) 
-0

>  <i_i_glide_confnum>  (271) 
2

>  <i_i_glide_posenum>  (271) 
25

>  <r_i_glide_eff_state_penalty>  (271) 
0

>  <ligand_id>  (271) 
86

>  <original_smiles>  (271) 
COC12CCC3(C)C(CCC4C5(C)C6N(C)C(C(O)C451)C61COC(=O)C1)C1(C)CCCC32CC1=O

>  <smiles>  (271) 
[H]OC1([H])C2([H])N(C([H])([H])[H])C([H])(C23C([H])([H])OC(=O)C3([H])[H])C2(C([H])([H])[H])C3([H])C([H])([H])C([H])([H])C4([H])C5(C([H])([H])[H])C(=O)C([H])([H])C6(C([H])([H])C([H])([H])C5([H])[H])C(OC([H])([H])[H])(C([H])([H])C([H])([H])C46C([H])([H])[H])C132

$$$$
87:0:0
     RDKit          3D

 80 87  0  0  1  0  0  0  0  0999 V2000
    1.2444   -2.3021    7.5103 C   0  0  0  0  0  0  0  0  0  0  0  0
    0.5804   -1.1742    6.9533 O   0  0  0  0  0  0  0  0  0  0  0  0
    0.8364   -0.8025    5.5850 C   0  0  2  0  0  0  0  0  0  0  0  0
    0.5838   -2.0017    4.5488 C   0  0  0  0  0  0  0  0  0  0  0  0
    1.3449   -2.1035    3.1269 C   0  0  0  0  0  0  0  0  0  0  0  0
    2.7897   -1.4595    2.7547 C   0  0  1  0  0  0  0  0  0  0  0  0
    2.9683   -1.5023    1.3061 N   0  0  0  0  0  0  0  0  0  0  0  0
    3.5825   -2.4767    0.6191 C   0  0  0  0  0  0  0  0  0  0  0  0
    4.0783   -3.4718    1.1527 O   0  0  0  0  0  0  0  0  0  0  0  0
    3.6603   -2.2949   -0.9099 C   0  0  0  0  0  0  0  0  0  0  0  0
    2.6806   -3.2505   -1.6212 C   0  0  0  0  0  0  0  0  0  0  0  0
    2.7814   -3.1550   -3.1530 C   0  0  0  0  0  0  0  0  0  0  0  0
    4.2168   -3.3994   -3.6369 C   0  0  0  0  0  0  0  0  0  0  0  0
    5.1933   -2.4380   -2.9516 C   0  0  0  0  0  0  0  0  0  0  0  0
    5.1024   -2.5373   -1.4231 C   0  0  0  0  0  0  0  0  0  0  0  0
    3.2834   -0.0164    3.2975 C   0  0  2  0  0  0  0  0  0  0  0  0
    4.6810   -0.2012    4.0430 C   0  0  0  0  0  0  0  0  0  0  0  0
    4.7133    0.0402    5.5663 C   0  0  0  0  0  0  0  0  0  0  0  0
    5.7262    0.7397    6.2640 C   0  0  0  0  0  0  0  0  0  0  0  0
    5.3700    1.5460    7.3831 C   0  0  0  0  0  0  0  0  0  0  0  0
    4.0127    1.8109    7.6238 C   0  0  0  0  0  0  0  0  0  0  0  0
    3.6700    2.8415    8.4576 O   0  0  0  0  0  0  0  0  0  0  0  0
    3.0117    1.1218    6.8975 C   0  0  0  0  0  0  0  0  0  0  0  0
    3.4099    0.0956    6.0600 C   0  0  0  0  0  0  0  0  0  0  0  0
    2.2866   -0.5692    5.2484 C   0  0  2  0  0  0  0  0  0  0  0  0
    2.0793    0.4394    4.1282 C   0  0  2  0  0  0  0  0  0  0  0  0
    0.9053    0.6931    3.0969 C   0  0  0  0  0  0  0  0  0  0  0  0
   -0.3822    0.7010    3.8986 C   0  0  0  0  0  0  0  0  0  0  0  0
    0.2039    0.6490    5.3066 C   0  0  1  0  0  0  0  0  0  0  0  0
   -0.8546    1.1317    6.3617 C   0  0  0  0  0  0  0  0  0  0  0  0
   -1.2332    2.6444    6.3795 C   0  0  0  0  0  0  0  0  0  0  0  0
   -0.1513    3.6093    6.9019 C   0  0  0  0  0  0  0  0  0  0  0  0
   -0.8193    4.8196    7.4669 C   0  0  0  0  0  0  0  0  0  0  0  0
   -2.0829    4.2386    8.0882 C   0  0  0  0  0  0  0  0  0  0  0  0
   -2.4337    2.9610    7.2904 C   0  0  0  0  0  0  0  0  0  0  0  0
    1.4934    1.5148    5.1215 C   0  0  1  0  0  0  0  0  0  0  0  0
    1.8701    1.7247    6.5025 O   0  0  0  0  0  0  0  0  0  0  0  0
    1.0953   -2.2913    8.5889 H   0  0  0  0  0  0  0  0  0  0  0  0
    2.3175   -2.2928    7.3293 H   0  0  0  0  0  0  0  0  0  0  0  0
    0.8267   -3.2413    7.1518 H   0  0  0  0  0  0  0  0  0  0  0  0
    0.8665   -2.9287    5.0395 H   0  0  0  0  0  0  0  0  0  0  0  0
   -0.4856   -2.1319    4.3971 H   0  0  0  0  0  0  0  0  0  0  0  0
    1.4596   -3.1713    2.9467 H   0  0  0  0  0  0  0  0  0  0  0  0
    0.6186   -1.8520    2.3620 H   0  0  0  0  0  0  0  0  0  0  0  0
    3.4790   -2.1904    3.1806 H   0  0  0  0  0  0  0  0  0  0  0  0
    2.5132   -0.7879    0.7494 H   0  0  0  0  0  0  0  0  0  0  0  0
    3.3769   -1.2731   -1.1740 H   0  0  0  0  0  0  0  0  0  0  0  0
    2.9067   -4.2593   -1.2985 H   0  0  0  0  0  0  0  0  0  0  0  0
    1.6505   -3.0714   -1.3123 H   0  0  0  0  0  0  0  0  0  0  0  0
    2.1156   -3.8818   -3.6134 H   0  0  0  0  0  0  0  0  0  0  0  0
    2.4352   -2.1742   -3.4787 H   0  0  0  0  0  0  0  0  0  0  0  0
    4.5176   -4.4257   -3.4267 H   0  0  0  0  0  0  0  0  0  0  0  0
    4.2665   -3.2873   -4.7169 H   0  0  0  0  0  0  0  0  0  0  0  0
    6.2111   -2.6722   -3.2561 H   0  0  0  0  0  0  0  0  0  0  0  0
    4.9845   -1.4140   -3.2616 H   0  0  0  0  0  0  0  0  0  0  0  0
    5.7843   -1.8188   -0.9641 H   0  0  0  0  0  0  0  0  0  0  0  0
    5.4513   -3.5275   -1.1220 H   0  0  0  0  0  0  0  0  0  0  0  0
    3.4311    0.6737    2.4610 H   0  0  0  0  0  0  0  0  0  0  0  0
    5.1366   -1.1760    3.8783 H   0  0  0  0  0  0  0  0  0  0  0  0
    5.3749    0.5150    3.6113 H   0  0  0  0  0  0  0  0  0  0  0  0
    6.7405    0.7730    5.8870 H   0  0  0  0  0  0  0  0  0  0  0  0
    6.1333    2.1307    7.8892 H   0  0  0  0  0  0  0  0  0  0  0  0
    2.7414    2.9995    8.4889 H   0  0  0  0  0  0  0  0  0  0  0  0
    2.7581   -1.5451    5.1073 H   0  0  0  0  0  0  0  0  0  0  0  0
    1.0391    1.6935    2.6763 H   0  0  0  0  0  0  0  0  0  0  0  0
    0.8394    0.1304    2.1722 H   0  0  0  0  0  0  0  0  0  0  0  0
   -0.9274    1.6276    3.7007 H   0  0  0  0  0  0  0  0  0  0  0  0
   -1.0614   -0.1200    3.6570 H   0  0  0  0  0  0  0  0  0  0  0  0
   -1.7614    0.5456    6.1877 H   0  0  0  0  0  0  0  0  0  0  0  0
   -0.5476    0.8778    7.3769 H   0  0  0  0  0  0  0  0  0  0  0  0
   -1.5076    2.9592    5.3743 H   0  0  0  0  0  0  0  0  0  0  0  0
    0.3500    3.1787    7.7628 H   0  0  0  0  0  0  0  0  0  0  0  0
    0.5631    3.9537    6.1580 H   0  0  0  0  0  0  0  0  0  0  0  0
   -0.1623    5.3290    8.1742 H   0  0  0  0  0  0  0  0  0  0  0  0
   -0.9986    5.4919    6.6347 H   0  0  0  0  0  0  0  0  0  0  0  0
   -1.8591    3.9590    9.1220 H   0  0  0  0  0  0  0  0  0  0  0  0
   -2.8920    4.9663    8.1057 H   0  0  0  0  0  0  0  0  0  0  0  0
   -3.3286    3.1109    6.6838 H   0  0  0  0  0  0  0  0  0  0  0  0
   -2.6522    2.1475    7.9878 H   0  0  0  0  0  0  0  0  0  0  0  0
    1.3320    2.4613    4.6233 H   0  0  0  0  0  0  0  0  0  0  0  0
  1  2  1  0
  1 38  1  0
  1 39  1  0
  1 40  1  0
  3  2  1  1
  3 25  1  0
  3 29  1  0
  3  4  1  0
  4  5  1  0
  4 41  1  0
  4 42  1  0
  5  6  1  0
  5 43  1  0
  5 44  1  0
  6  7  1  0
  6 16  1  0
  6 45  1  1
  7  8  1  0
  7 46  1  0
  8  9  2  0
  8 10  1  0
 10 15  1  0
 10 11  1  0
 10 47  1  0
 11 12  1  0
 11 48  1  0
 11 49  1  0
 12 13  1  0
 12 50  1  0
 12 51  1  0
 13 14  1  0
 13 52  1  0
 13 53  1  0
 14 15  1  0
 14 54  1  0
 14 55  1  0
 15 56  1  0
 15 57  1  0
 16 26  1  0
 16 17  1  0
 16 58  1  6
 17 18  1  0
 17 59  1  0
 17 60  1  0
 18 24  2  0
 18 19  1  0
 19 20  2  0
 19 61  1  0
 20 21  1  0
 20 62  1  0
 21 22  1  0
 21 23  2  0
 22 63  1  0
 23 37  1  0
 23 24  1  0
 24 25  1  0
 25 26  1  0
 25 64  1  6
 26 36  1  0
 26 27  1  6
 27 28  1  0
 27 65  1  0
 27 66  1  0
 28 29  1  0
 28 67  1  0
 28 68  1  0
 29 30  1  1
 29 36  1  0
 30 31  1  0
 30 69  1  0
 30 70  1  0
 31 35  1  0
 31 32  1  0
 31 71  1  0
 32 33  1  0
 32 72  1  0
 32 73  1  0
 33 34  1  0
 33 74  1  0
 33 75  1  0
 34 35  1  0
 34 76  1  0
 34 77  1  0
 35 78  1  0
 35 79  1  0
 36 37  1  0
 36 80  1  6
M  END
>  <i_m_ct_stereo_status>  (272) 
1

>  <s_m_source_file>  (272) 
/var/tmp/pbs.5076255.sched01/tmp9n4xeji_/82rcfztp6i.sdf

>  <i_m_source_file_index>  (272) 
38

>  <i_lp_mmshare_version>  (272) 
48012

>  <i_f3d_flags>  (272) 
0

>  <s_epik_input>  (272) 
W0NIMl0xW0NIMl1bQ0gyXVtDSDJdW0NIMl1bQ0hdMUMoPU8pW05IXVtDQEBIXShbQ0BIXTJbQ0BdMzQ1KVtDSDJdW0NIMl1bQ0BAXTYoT1tDSDNdKVtDQEBIXTNjN2MoW0NIMl0yKVtjSF1bY0hdYyhbT0hdKWM3T1tDQEBIXTVbQ0BdNihbQ0gyXVtDSDJdNClbQ0gyXVtDSF04W0NIMl1bQ0gyXVtDSDJdW0NIMl04

>  <s_epik_cmdline>  (272) 
J2VwaWtfcHl0aG9uJywgJy1waHQnLCAnMi4wJywgJy1waCcsICc3LjAnLCAnLXRuJywgJzgnLCAnLW1hJywgJzIwMCcsICctaW1hZScsICc8aW5maWxlLm1hZT4nLCAnLW9tYWUnLCAnPG91dGZpbGUubWFlPic=

>  <r_lp_tautomer_probability>  (272) 
1

>  <r_epik_Ionization_Penalty>  (272) 
0.000143666

>  <r_epik_Ionization_Penalty_Charging>  (272) 
0

>  <r_epik_Ionization_Penalty_Neutral>  (272) 
0.000143666

>  <r_epik_State_Penalty>  (272) 
-0

>  <r_epik_Charging_Adjusted_Penalty>  (272) 
0

>  <i_epik_Tot_Q>  (272) 
0

>  <i_epik_Tot_abs_Q>  (272) 
0

>  <s_lp_Force_Field>  (272) 
OPLS3e

>  <r_lp_Energy>  (272) 
259.341

>  <b_lp_Chiralities_Consistent>  (272) 
1

>  <s_lp_Variant>  (272) 
87:0-1

>  <s_i_glide_gridfile>  (272) 
pfpi4k_grid

>  <i_i_glide_lignum>  (272) 
38

>  <i_i_glide_rotatable_bonds>  (272) 
7

>  <r_i_docking_score>  (272) 
-2.23031

>  <r_i_glide_ligand_efficiency>  (272) 
-0.0602786

>  <r_i_glide_ligand_efficiency_sa>  (272) 
-0.200862

>  <r_i_glide_ligand_efficiency_ln>  (272) 
-0.483701

>  <r_i_glide_gscore>  (272) 
-2.23031

>  <r_i_glide_lipo>  (272) 
-0.818163

>  <r_i_glide_hbond>  (272) 
-0.0149718

>  <r_i_glide_metal>  (272) 
-0

>  <r_i_glide_rewards>  (272) 
0

>  <r_i_glide_evdw>  (272) 
-26.6947

>  <r_i_glide_ecoul>  (272) 
-2.63579

>  <r_i_glide_erotb>  (272) 
0.399949

>  <r_i_glide_esite>  (272) 
-0.0670157

>  <r_i_glide_emodel>  (272) 
-31.6058

>  <r_i_glide_energy>  (272) 
-29.3305

>  <r_i_glide_einternal>  (272) 
2.94187

>  <r_i_glide_intrahb_reward>  (272) 
-0

>  <i_i_glide_confnum>  (272) 
2

>  <i_i_glide_posenum>  (272) 
2

>  <r_i_glide_eff_state_penalty>  (272) 
0

>  <ligand_id>  (272) 
87

>  <original_smiles>  (272) 
COC12CCC(NC(=O)C3CCCCC3)C3Cc4ccc(O)c5c4C1C31CCC2(CC2CCCC2)C1O5

>  <smiles>  (272) 
[H]Oc1c([H])c([H])c2c3c1OC1([H])C45C([H])([H])C([H])([H])C1(C([H])([H])C1([H])C([H])([H])C([H])([H])C([H])([H])C1([H])[H])C(OC([H])([H])[H])(C([H])([H])C([H])([H])C([H])(N([H])C(=O)C1([H])C([H])([H])C([H])([H])C([H])([H])C([H])([H])C1([H])[H])C4([H])C2([H])[H])C35[H]

$$$$
87:0:1
     RDKit          3D

 80 87  0  0  1  0  0  0  0  0999 V2000
    6.6245   -2.5292    1.6808 C   0  0  0  0  0  0  0  0  0  0  0  0
    5.4172   -2.9761    2.3156 O   0  0  0  0  0  0  0  0  0  0  0  0
    4.3311   -2.0444    2.4749 C   0  0  2  0  0  0  0  0  0  0  0  0
    4.7162   -0.8608    3.4878 C   0  0  0  0  0  0  0  0  0  0  0  0
    3.6369   -0.1233    4.4539 C   0  0  0  0  0  0  0  0  0  0  0  0
    2.2374   -0.7425    5.0213 C   0  0  1  0  0  0  0  0  0  0  0  0
    1.4421    0.3498    5.5884 N   0  0  0  0  0  0  0  0  0  0  0  0
    0.3656    0.2308    6.3853 C   0  0  0  0  0  0  0  0  0  0  0  0
   -0.1012   -0.8510    6.7430 O   0  0  0  0  0  0  0  0  0  0  0  0
   -0.2956    1.5387    6.8467 C   0  0  0  0  0  0  0  0  0  0  0  0
   -0.3412    1.5972    8.3894 C   0  0  0  0  0  0  0  0  0  0  0  0
   -1.0665    2.8540    8.8910 C   0  0  0  0  0  0  0  0  0  0  0  0
   -2.4777    2.9623    8.2956 C   0  0  0  0  0  0  0  0  0  0  0  0
   -2.4397    2.9151    6.7603 C   0  0  0  0  0  0  0  0  0  0  0  0
   -1.7184    1.6559    6.2553 C   0  0  0  0  0  0  0  0  0  0  0  0
    1.3104   -1.7411    4.1333 C   0  0  2  0  0  0  0  0  0  0  0  0
    1.0883   -3.0827    4.9496 C   0  0  0  0  0  0  0  0  0  0  0  0
    1.6868   -4.3572    4.3484 C   0  0  0  0  0  0  0  0  0  0  0  0
    1.0622   -5.6167    4.3233 C   0  0  0  0  0  0  0  0  0  0  0  0
    1.2640   -6.4687    3.2203 C   0  0  0  0  0  0  0  0  0  0  0  0
    1.9281   -5.9637    2.0808 C   0  0  0  0  0  0  0  0  0  0  0  0
    1.8259   -6.6217    0.8907 O   0  0  0  0  0  0  0  0  0  0  0  0
    2.5515   -4.6994    2.1312 C   0  0  0  0  0  0  0  0  0  0  0  0
    2.6435   -4.0622    3.3547 C   0  0  0  0  0  0  0  0  0  0  0  0
    3.2306   -2.6394    3.3303 C   0  0  2  0  0  0  0  0  0  0  0  0
    2.0665   -1.8269    2.7847 C   0  0  2  0  0  0  0  0  0  0  0  0
    1.9671   -0.3753    2.1693 C   0  0  0  0  0  0  0  0  0  0  0  0
    3.0559   -0.2870    1.1355 C   0  0  0  0  0  0  0  0  0  0  0  0
    3.5322   -1.7328    1.1220 C   0  0  1  0  0  0  0  0  0  0  0  0
    4.2682   -2.0519   -0.2060 C   0  0  0  0  0  0  0  0  0  0  0  0
    3.5005   -1.9897   -1.5382 C   0  0  0  0  0  0  0  0  0  0  0  0
    2.5992   -3.2021   -1.8102 C   0  0  0  0  0  0  0  0  0  0  0  0
    2.4994   -3.2656   -3.3218 C   0  0  0  0  0  0  0  0  0  0  0  0
    3.8820   -2.8438   -3.8087 C   0  0  0  0  0  0  0  0  0  0  0  0
    4.4572   -1.9108   -2.7409 C   0  0  0  0  0  0  0  0  0  0  0  0
    2.2147   -2.5161    1.3555 C   0  0  1  0  0  0  0  0  0  0  0  0
    2.6187   -3.8797    1.0606 O   0  0  0  0  0  0  0  0  0  0  0  0
    7.3772   -3.3158    1.7789 H   0  0  0  0  0  0  0  0  0  0  0  0
    6.9978   -1.5975    2.1028 H   0  0  0  0  0  0  0  0  0  0  0  0
    6.5837   -2.3646    0.6131 H   0  0  0  0  0  0  0  0  0  0  0  0
    5.4455   -1.2995    4.1676 H   0  0  0  0  0  0  0  0  0  0  0  0
    5.2905   -0.0963    2.9639 H   0  0  0  0  0  0  0  0  0  0  0  0
    4.2024    0.1550    5.3429 H   0  0  0  0  0  0  0  0  0  0  0  0
    3.4640    0.8654    4.0318 H   0  0  0  0  0  0  0  0  0  0  0  0
    2.5689   -1.2931    5.9007 H   0  0  0  0  0  0  0  0  0  0  0  0
    1.7509    1.2830    5.3646 H   0  0  0  0  0  0  0  0  0  0  0  0
    0.2941    2.3871    6.4905 H   0  0  0  0  0  0  0  0  0  0  0  0
   -0.8469    0.7169    8.7866 H   0  0  0  0  0  0  0  0  0  0  0  0
    0.6722    1.5745    8.7944 H   0  0  0  0  0  0  0  0  0  0  0  0
   -1.1253    2.8310    9.9794 H   0  0  0  0  0  0  0  0  0  0  0  0
   -0.4874    3.7396    8.6307 H   0  0  0  0  0  0  0  0  0  0  0  0
   -3.0919    2.1470    8.6762 H   0  0  0  0  0  0  0  0  0  0  0  0
   -2.9532    3.8846    8.6306 H   0  0  0  0  0  0  0  0  0  0  0  0
   -3.4535    2.9439    6.3622 H   0  0  0  0  0  0  0  0  0  0  0  0
   -1.9324    3.8012    6.3794 H   0  0  0  0  0  0  0  0  0  0  0  0
   -1.6706    1.6760    5.1645 H   0  0  0  0  0  0  0  0  0  0  0  0
   -2.3094    0.7780    6.5157 H   0  0  0  0  0  0  0  0  0  0  0  0
    0.3358   -1.2842    3.9519 H   0  0  0  0  0  0  0  0  0  0  0  0
    1.4261   -3.0178    5.9850 H   0  0  0  0  0  0  0  0  0  0  0  0
    0.0122   -3.2446    5.0176 H   0  0  0  0  0  0  0  0  0  0  0  0
    0.3186   -5.8809    5.0656 H   0  0  0  0  0  0  0  0  0  0  0  0
    0.7481   -7.4151    3.1584 H   0  0  0  0  0  0  0  0  0  0  0  0
    2.3974   -6.2615    0.2260 H   0  0  0  0  0  0  0  0  0  0  0  0
    3.5581   -2.6075    4.3688 H   0  0  0  0  0  0  0  0  0  0  0  0
    1.0067   -0.3107    1.6532 H   0  0  0  0  0  0  0  0  0  0  0  0
    1.9034    0.5014    2.8061 H   0  0  0  0  0  0  0  0  0  0  0  0
    2.5878   -0.0056    0.2035 H   0  0  0  0  0  0  0  0  0  0  0  0
    3.8365    0.4409    1.3572 H   0  0  0  0  0  0  0  0  0  0  0  0
    5.0683   -1.3188   -0.2897 H   0  0  0  0  0  0  0  0  0  0  0  0
    4.7174   -3.0458   -0.1509 H   0  0  0  0  0  0  0  0  0  0  0  0
    2.8960   -1.0878   -1.5928 H   0  0  0  0  0  0  0  0  0  0  0  0
    3.0633   -4.1173   -1.4372 H   0  0  0  0  0  0  0  0  0  0  0  0
    1.6127   -3.0995   -1.3570 H   0  0  0  0  0  0  0  0  0  0  0  0
    2.2061   -4.2557   -3.6791 H   0  0  0  0  0  0  0  0  0  0  0  0
    1.7432   -2.5562   -3.6516 H   0  0  0  0  0  0  0  0  0  0  0  0
    4.5242   -3.7209   -3.9089 H   0  0  0  0  0  0  0  0  0  0  0  0
    3.8103   -2.3338   -4.7616 H   0  0  0  0  0  0  0  0  0  0  0  0
    4.4946   -0.8780   -3.0931 H   0  0  0  0  0  0  0  0  0  0  0  0
    5.4839   -2.2021   -2.5021 H   0  0  0  0  0  0  0  0  0  0  0  0
    1.4089   -2.2614    0.6852 H   0  0  0  0  0  0  0  0  0  0  0  0
  1  2  1  0
  1 38  1  0
  1 39  1  0
  1 40  1  0
  3  2  1  6
  3 25  1  0
  3 29  1  0
  3  4  1  0
  4  5  1  0
  4 41  1  0
  4 42  1  0
  5  6  1  0
  5 43  1  0
  5 44  1  0
  6  7  1  0
  6 16  1  0
  6 45  1  1
  7  8  1  0
  7 46  1  0
  8  9  2  0
  8 10  1  0
 10 15  1  0
 10 11  1  0
 10 47  1  0
 11 12  1  0
 11 48  1  0
 11 49  1  0
 12 13  1  0
 12 50  1  0
 12 51  1  0
 13 14  1  0
 13 52  1  0
 13 53  1  0
 14 15  1  0
 14 54  1  0
 14 55  1  0
 15 56  1  0
 15 57  1  0
 16 26  1  0
 16 17  1  0
 16 58  1  6
 17 18  1  0
 17 59  1  0
 17 60  1  0
 18 24  2  0
 18 19  1  0
 19 20  2  0
 19 61  1  0
 20 21  1  0
 20 62  1  0
 21 22  1  0
 21 23  2  0
 22 63  1  0
 23 37  1  0
 23 24  1  0
 24 25  1  0
 25 26  1  0
 25 64  1  1
 26 36  1  0
 26 27  1  6
 27 28  1  0
 27 65  1  0
 27 66  1  0
 28 29  1  0
 28 67  1  0
 28 68  1  0
 29 30  1  6
 29 36  1  0
 30 31  1  0
 30 69  1  0
 30 70  1  0
 31 35  1  0
 31 32  1  0
 31 71  1  0
 32 33  1  0
 32 72  1  0
 32 73  1  0
 33 34  1  0
 33 74  1  0
 33 75  1  0
 34 35  1  0
 34 76  1  0
 34 77  1  0
 35 78  1  0
 35 79  1  0
 36 37  1  0
 36 80  1  6
M  END
>  <i_m_ct_stereo_status>  (273) 
1

>  <s_m_source_file>  (273) 
/var/tmp/pbs.5076255.sched01/tmp9n4xeji_/82rcfztp6i.sdf

>  <i_m_source_file_index>  (273) 
38

>  <i_lp_mmshare_version>  (273) 
48012

>  <i_f3d_flags>  (273) 
0

>  <s_epik_input>  (273) 
W0NIMl0xW0NIMl1bQ0gyXVtDSDJdW0NIMl1bQ0hdMUMoPU8pW05IXVtDQEBIXShbQ0BIXTJbQ0BdMzQ1KVtDSDJdW0NIMl1bQ0BAXTYoT1tDSDNdKVtDQEBIXTNjN2MoW0NIMl0yKVtjSF1bY0hdYyhbT0hdKWM3T1tDQEBIXTVbQ0BdNihbQ0gyXVtDSDJdNClbQ0gyXVtDSF04W0NIMl1bQ0gyXVtDSDJdW0NIMl04

>  <s_epik_cmdline>  (273) 
J2VwaWtfcHl0aG9uJywgJy1waHQnLCAnMi4wJywgJy1waCcsICc3LjAnLCAnLXRuJywgJzgnLCAnLW1hJywgJzIwMCcsICctaW1hZScsICc8aW5maWxlLm1hZT4nLCAnLW9tYWUnLCAnPG91dGZpbGUubWFlPic=

>  <r_lp_tautomer_probability>  (273) 
1

>  <r_epik_Ionization_Penalty>  (273) 
0.000143666

>  <r_epik_Ionization_Penalty_Charging>  (273) 
0

>  <r_epik_Ionization_Penalty_Neutral>  (273) 
0.000143666

>  <r_epik_State_Penalty>  (273) 
-0

>  <r_epik_Charging_Adjusted_Penalty>  (273) 
0

>  <i_epik_Tot_Q>  (273) 
0

>  <i_epik_Tot_abs_Q>  (273) 
0

>  <s_lp_Force_Field>  (273) 
OPLS3e

>  <r_lp_Energy>  (273) 
259.341

>  <b_lp_Chiralities_Consistent>  (273) 
1

>  <s_lp_Variant>  (273) 
87:0-1

>  <s_i_glide_gridfile>  (273) 
pfpi4k_grid

>  <i_i_glide_lignum>  (273) 
38

>  <i_i_glide_rotatable_bonds>  (273) 
7

>  <r_i_docking_score>  (273) 
-1.99149

>  <r_i_glide_ligand_efficiency>  (273) 
-0.0538242

>  <r_i_glide_ligand_efficiency_sa>  (273) 
-0.179354

>  <r_i_glide_ligand_efficiency_ln>  (273) 
-0.431908

>  <r_i_glide_gscore>  (273) 
-1.99149

>  <r_i_glide_lipo>  (273) 
-0.755335

>  <r_i_glide_hbond>  (273) 
0

>  <r_i_glide_metal>  (273) 
-0

>  <r_i_glide_rewards>  (273) 
0

>  <r_i_glide_evdw>  (273) 
-25.6587

>  <r_i_glide_ecoul>  (273) 
-2.27168

>  <r_i_glide_erotb>  (273) 
0.399949

>  <r_i_glide_esite>  (273) 
-0.0124222

>  <r_i_glide_emodel>  (273) 
-28.481

>  <r_i_glide_energy>  (273) 
-27.9303

>  <r_i_glide_einternal>  (273) 
4.86352

>  <r_i_glide_intrahb_reward>  (273) 
-0

>  <i_i_glide_confnum>  (273) 
1

>  <i_i_glide_posenum>  (273) 
16

>  <r_i_glide_eff_state_penalty>  (273) 
0

>  <ligand_id>  (273) 
87

>  <original_smiles>  (273) 
COC12CCC(NC(=O)C3CCCCC3)C3Cc4ccc(O)c5c4C1C31CCC2(CC2CCCC2)C1O5

>  <smiles>  (273) 
[H]Oc1c([H])c([H])c2c3c1OC1([H])C45C([H])([H])C([H])([H])C1(C([H])([H])C1([H])C([H])([H])C([H])([H])C([H])([H])C1([H])[H])C(OC([H])([H])[H])(C([H])([H])C([H])([H])C([H])(N([H])C(=O)C1([H])C([H])([H])C([H])([H])C([H])([H])C([H])([H])C1([H])[H])C4([H])C2([H])[H])C35[H]

$$$$
87:0:2
     RDKit          3D

 80 87  0  0  1  0  0  0  0  0999 V2000
    5.5686   -4.0172    4.2255 C   0  0  0  0  0  0  0  0  0  0  0  0
    5.2646   -3.1647    3.1248 O   0  0  0  0  0  0  0  0  0  0  0  0
    4.2517   -2.1604    3.2583 C   0  0  2  0  0  0  0  0  0  0  0  0
    4.6035   -1.0547    4.3661 C   0  0  0  0  0  0  0  0  0  0  0  0
    3.4607   -0.2363    5.1724 C   0  0  0  0  0  0  0  0  0  0  0  0
    1.9344   -0.7237    5.4678 C   0  0  1  0  0  0  0  0  0  0  0  0
    1.1747    0.4305    5.9486 N   0  0  0  0  0  0  0  0  0  0  0  0
    0.0271    0.3857    6.6427 C   0  0  0  0  0  0  0  0  0  0  0  0
   -0.5238   -0.6665    6.9650 O   0  0  0  0  0  0  0  0  0  0  0  0
   -0.6124    1.7336    7.0101 C   0  0  0  0  0  0  0  0  0  0  0  0
   -0.9148    1.8109    8.5238 C   0  0  0  0  0  0  0  0  0  0  0  0
   -1.6310    3.1172    8.8990 C   0  0  0  0  0  0  0  0  0  0  0  0
   -2.9092    3.3160    8.0717 C   0  0  0  0  0  0  0  0  0  0  0  0
   -2.6107    3.2538    6.5665 C   0  0  0  0  0  0  0  0  0  0  0  0
   -1.9032    1.9441    6.1895 C   0  0  0  0  0  0  0  0  0  0  0  0
    1.0643   -1.5853    4.3888 C   0  0  2  0  0  0  0  0  0  0  0  0
    0.5772   -2.9313    5.0850 C   0  0  0  0  0  0  0  0  0  0  0  0
    1.1502   -4.2412    4.5278 C   0  0  0  0  0  0  0  0  0  0  0  0
    0.4360   -5.4414    4.3431 C   0  0  0  0  0  0  0  0  0  0  0  0
    0.7413   -6.2671    3.2343 C   0  0  0  0  0  0  0  0  0  0  0  0
    1.6164   -5.7818    2.2401 C   0  0  0  0  0  0  0  0  0  0  0  0
    1.6458   -6.3821    1.0130 O   0  0  0  0  0  0  0  0  0  0  0  0
    2.3219   -4.5773    2.4493 C   0  0  0  0  0  0  0  0  0  0  0  0
    2.2578   -3.9977    3.7031 C   0  0  0  0  0  0  0  0  0  0  0  0
    2.9724   -2.6545    3.8640 C   0  0  2  0  0  0  0  0  0  0  0  0
    2.0191   -1.6951    3.1698 C   0  0  2  0  0  0  0  0  0  0  0  0
    2.1814   -0.2228    2.6276 C   0  0  0  0  0  0  0  0  0  0  0  0
    3.4417   -0.2120    1.7954 C   0  0  0  0  0  0  0  0  0  0  0  0
    3.7619   -1.7071    1.7979 C   0  0  1  0  0  0  0  0  0  0  0  0
    4.7298   -2.0830    0.6305 C   0  0  0  0  0  0  0  0  0  0  0  0
    4.2058   -1.8628   -0.8178 C   0  0  0  0  0  0  0  0  0  0  0  0
    3.2449   -2.9450   -1.3390 C   0  0  0  0  0  0  0  0  0  0  0  0
    3.3810   -2.9157   -2.8529 C   0  0  0  0  0  0  0  0  0  0  0  0
    4.8577   -2.5996   -3.0815 C   0  0  0  0  0  0  0  0  0  0  0  0
    5.3294   -1.7938   -1.8627 C   0  0  0  0  0  0  0  0  0  0  0  0
    2.3282   -2.3297    1.7329 C   0  0  1  0  0  0  0  0  0  0  0  0
    2.6120   -3.7264    1.4356 O   0  0  0  0  0  0  0  0  0  0  0  0
    6.2159   -4.8139    3.8605 H   0  0  0  0  0  0  0  0  0  0  0  0
    4.6924   -4.4999    4.6502 H   0  0  0  0  0  0  0  0  0  0  0  0
    6.1083   -3.5016    5.0191 H   0  0  0  0  0  0  0  0  0  0  0  0
    5.1730   -1.5527    5.1484 H   0  0  0  0  0  0  0  0  0  0  0  0
    5.3299   -0.3504    3.9574 H   0  0  0  0  0  0  0  0  0  0  0  0
    3.8927   -0.0499    6.1553 H   0  0  0  0  0  0  0  0  0  0  0  0
    3.4611    0.7775    4.7770 H   0  0  0  0  0  0  0  0  0  0  0  0
    2.0623   -1.3407    6.3580 H   0  0  0  0  0  0  0  0  0  0  0  0
    1.5488    1.3408    5.7279 H   0  0  0  0  0  0  0  0  0  0  0  0
    0.0843    2.5374    6.7646 H   0  0  0  0  0  0  0  0  0  0  0  0
   -1.5394    0.9711    8.8258 H   0  0  0  0  0  0  0  0  0  0  0  0
    0.0101    1.7244    9.0974 H   0  0  0  0  0  0  0  0  0  0  0  0
   -1.8754    3.1081    9.9615 H   0  0  0  0  0  0  0  0  0  0  0  0
   -0.9584    3.9612    8.7441 H   0  0  0  0  0  0  0  0  0  0  0  0
   -3.6387    2.5487    8.3332 H   0  0  0  0  0  0  0  0  0  0  0  0
   -3.3701    4.2690    8.3268 H   0  0  0  0  0  0  0  0  0  0  0  0
   -3.5354    3.3437    5.9979 H   0  0  0  0  0  0  0  0  0  0  0  0
   -1.9867    4.1003    6.2802 H   0  0  0  0  0  0  0  0  0  0  0  0
   -1.6721    1.9505    5.1221 H   0  0  0  0  0  0  0  0  0  0  0  0
   -2.5837    1.1099    6.3498 H   0  0  0  0  0  0  0  0  0  0  0  0
    0.1832   -1.0166    4.0864 H   0  0  0  0  0  0  0  0  0  0  0  0
    0.7473   -2.9393    6.1629 H   0  0  0  0  0  0  0  0  0  0  0  0
   -0.5051   -2.9832    4.9684 H   0  0  0  0  0  0  0  0  0  0  0  0
   -0.4449   -5.6566    4.9339 H   0  0  0  0  0  0  0  0  0  0  0  0
    0.1482   -7.1479    3.0373 H   0  0  0  0  0  0  0  0  0  0  0  0
    2.3461   -6.0581    0.4642 H   0  0  0  0  0  0  0  0  0  0  0  0
    3.1160   -2.6972    4.9447 H   0  0  0  0  0  0  0  0  0  0  0  0
    1.3368   -0.0345    1.9615 H   0  0  0  0  0  0  0  0  0  0  0  0
    2.0967    0.6277    3.2935 H   0  0  0  0  0  0  0  0  0  0  0  0
    3.1870    0.1838    0.8133 H   0  0  0  0  0  0  0  0  0  0  0  0
    4.2374    0.4144    2.1982 H   0  0  0  0  0  0  0  0  0  0  0  0
    5.6410   -1.5032    0.7769 H   0  0  0  0  0  0  0  0  0  0  0  0
    5.0457   -3.1250    0.7112 H   0  0  0  0  0  0  0  0  0  0  0  0
    3.6758   -0.9136   -0.9016 H   0  0  0  0  0  0  0  0  0  0  0  0
    3.5289   -3.9317   -0.9688 H   0  0  0  0  0  0  0  0  0  0  0  0
    2.2143   -2.7559   -1.0499 H   0  0  0  0  0  0  0  0  0  0  0  0
    3.0686   -3.8548   -3.3148 H   0  0  0  0  0  0  0  0  0  0  0  0
    2.7544   -2.1153   -3.2545 H   0  0  0  0  0  0  0  0  0  0  0  0
    5.4231   -3.5325   -3.1366 H   0  0  0  0  0  0  0  0  0  0  0  0
    5.0058   -2.0503   -4.0084 H   0  0  0  0  0  0  0  0  0  0  0  0
    5.4969   -0.7504   -2.1308 H   0  0  0  0  0  0  0  0  0  0  0  0
    6.2724   -2.1978   -1.4910 H   0  0  0  0  0  0  0  0  0  0  0  0
    1.7180   -1.9165    0.9350 H   0  0  0  0  0  0  0  0  0  0  0  0
  1  2  1  0
  1 38  1  0
  1 39  1  0
  1 40  1  0
  3  2  1  6
  3 25  1  0
  3 29  1  0
  3  4  1  0
  4  5  1  0
  4 41  1  0
  4 42  1  0
  5  6  1  0
  5 43  1  0
  5 44  1  0
  6  7  1  0
  6 16  1  0
  6 45  1  1
  7  8  1  0
  7 46  1  0
  8  9  2  0
  8 10  1  0
 10 15  1  0
 10 11  1  0
 10 47  1  0
 11 12  1  0
 11 48  1  0
 11 49  1  0
 12 13  1  0
 12 50  1  0
 12 51  1  0
 13 14  1  0
 13 52  1  0
 13 53  1  0
 14 15  1  0
 14 54  1  0
 14 55  1  0
 15 56  1  0
 15 57  1  0
 16 26  1  0
 16 17  1  0
 16 58  1  6
 17 18  1  0
 17 59  1  0
 17 60  1  0
 18 24  2  0
 18 19  1  0
 19 20  2  0
 19 61  1  0
 20 21  1  0
 20 62  1  0
 21 22  1  0
 21 23  2  0
 22 63  1  0
 23 37  1  0
 23 24  1  0
 24 25  1  0
 25 26  1  0
 25 64  1  1
 26 36  1  0
 26 27  1  6
 27 28  1  0
 27 65  1  0
 27 66  1  0
 28 29  1  0
 28 67  1  0
 28 68  1  0
 29 30  1  6
 29 36  1  0
 30 31  1  0
 30 69  1  0
 30 70  1  0
 31 35  1  0
 31 32  1  0
 31 71  1  0
 32 33  1  0
 32 72  1  0
 32 73  1  0
 33 34  1  0
 33 74  1  0
 33 75  1  0
 34 35  1  0
 34 76  1  0
 34 77  1  0
 35 78  1  0
 35 79  1  0
 36 37  1  0
 36 80  1  6
M  END
>  <i_m_ct_stereo_status>  (274) 
1

>  <s_m_source_file>  (274) 
/var/tmp/pbs.5076255.sched01/tmp9n4xeji_/82rcfztp6i.sdf

>  <i_m_source_file_index>  (274) 
38

>  <i_lp_mmshare_version>  (274) 
48012

>  <i_f3d_flags>  (274) 
0

>  <s_epik_input>  (274) 
W0NIMl0xW0NIMl1bQ0gyXVtDSDJdW0NIMl1bQ0hdMUMoPU8pW05IXVtDQEBIXShbQ0BIXTJbQ0BdMzQ1KVtDSDJdW0NIMl1bQ0BAXTYoT1tDSDNdKVtDQEBIXTNjN2MoW0NIMl0yKVtjSF1bY0hdYyhbT0hdKWM3T1tDQEBIXTVbQ0BdNihbQ0gyXVtDSDJdNClbQ0gyXVtDSF04W0NIMl1bQ0gyXVtDSDJdW0NIMl04

>  <s_epik_cmdline>  (274) 
J2VwaWtfcHl0aG9uJywgJy1waHQnLCAnMi4wJywgJy1waCcsICc3LjAnLCAnLXRuJywgJzgnLCAnLW1hJywgJzIwMCcsICctaW1hZScsICc8aW5maWxlLm1hZT4nLCAnLW9tYWUnLCAnPG91dGZpbGUubWFlPic=

>  <r_lp_tautomer_probability>  (274) 
1

>  <r_epik_Ionization_Penalty>  (274) 
0.000143666

>  <r_epik_Ionization_Penalty_Charging>  (274) 
0

>  <r_epik_Ionization_Penalty_Neutral>  (274) 
0.000143666

>  <r_epik_State_Penalty>  (274) 
-0

>  <r_epik_Charging_Adjusted_Penalty>  (274) 
0

>  <i_epik_Tot_Q>  (274) 
0

>  <i_epik_Tot_abs_Q>  (274) 
0

>  <s_lp_Force_Field>  (274) 
OPLS3e

>  <r_lp_Energy>  (274) 
259.341

>  <b_lp_Chiralities_Consistent>  (274) 
1

>  <s_lp_Variant>  (274) 
87:0-1

>  <s_i_glide_gridfile>  (274) 
pfpi4k_grid

>  <i_i_glide_lignum>  (274) 
38

>  <i_i_glide_rotatable_bonds>  (274) 
7

>  <r_i_docking_score>  (274) 
-1.94139

>  <r_i_glide_ligand_efficiency>  (274) 
-0.0524699

>  <r_i_glide_ligand_efficiency_sa>  (274) 
-0.174841

>  <r_i_glide_ligand_efficiency_ln>  (274) 
-0.421041

>  <r_i_glide_gscore>  (274) 
-1.94139

>  <r_i_glide_lipo>  (274) 
-0.433677

>  <r_i_glide_hbond>  (274) 
-0.0285817

>  <r_i_glide_metal>  (274) 
-0

>  <r_i_glide_rewards>  (274) 
0

>  <r_i_glide_evdw>  (274) 
-27.1815

>  <r_i_glide_ecoul>  (274) 
-3.32545

>  <r_i_glide_erotb>  (274) 
0.399949

>  <r_i_glide_esite>  (274) 
-0.0211849

>  <r_i_glide_emodel>  (274) 
-32.8721

>  <r_i_glide_energy>  (274) 
-30.5069

>  <r_i_glide_einternal>  (274) 
3.02343

>  <r_i_glide_intrahb_reward>  (274) 
-0

>  <i_i_glide_confnum>  (274) 
1

>  <i_i_glide_posenum>  (274) 
1

>  <r_i_glide_eff_state_penalty>  (274) 
0

>  <ligand_id>  (274) 
87

>  <original_smiles>  (274) 
COC12CCC(NC(=O)C3CCCCC3)C3Cc4ccc(O)c5c4C1C31CCC2(CC2CCCC2)C1O5

>  <smiles>  (274) 
[H]Oc1c([H])c([H])c2c3c1OC1([H])C45C([H])([H])C([H])([H])C1(C([H])([H])C1([H])C([H])([H])C([H])([H])C([H])([H])C1([H])[H])C(OC([H])([H])[H])(C([H])([H])C([H])([H])C([H])(N([H])C(=O)C1([H])C([H])([H])C([H])([H])C([H])([H])C([H])([H])C1([H])[H])C4([H])C2([H])[H])C35[H]

$$$$
88:0:0
     RDKit          3D

 53 57  0  0  1  0  0  0  0  0999 V2000
    3.0039   -4.0827    0.1742 C   0  0  0  0  0  0  0  0  0  0  0  0
    3.9753   -2.9990    0.7018 C   0  0  1  0  0  0  0  0  0  0  0  0
    3.2355   -1.6650    0.8917 C   0  0  0  0  0  0  0  0  0  0  0  0
    2.2213   -1.6993    2.0290 C   0  0  0  0  0  0  0  0  0  0  0  0
    2.9112   -1.9486    3.3780 C   0  0  2  0  0  0  0  0  0  0  0  0
    3.8335   -3.2371    3.3778 C   0  0  1  0  0  0  0  0  0  0  0  0
    4.8807   -3.0252    4.5141 C   0  0  0  0  0  0  0  0  0  0  0  0
    3.0326   -4.5337    3.7196 C   0  0  0  0  0  0  0  0  0  0  0  0
    1.6833   -4.3140    4.4167 C   0  0  0  0  0  0  0  0  0  0  0  0
    1.7211   -3.1220    5.3837 C   0  0  2  0  0  0  0  0  0  0  0  0
    0.4511   -2.9810    6.0082 O   0  0  0  0  0  0  0  0  0  0  0  0
   -0.3085   -2.0546    5.4441 C   0  0  0  0  0  0  0  0  0  0  0  0
   -1.4474   -1.7306    5.7707 O   0  0  0  0  0  0  0  0  0  0  0  0
    0.4636   -1.4326    4.2962 C   0  0  0  0  0  0  0  0  0  0  0  0
    1.9347   -1.7940    4.6187 C   0  0  2  0  0  0  0  0  0  0  0  0
    2.4710   -0.6944    5.5719 C   0  0  0  0  0  0  0  0  0  0  0  0
    4.5943   -3.4758    2.0332 C   0  0  0  0  0  0  0  0  0  0  0  0
    5.7879   -4.1185    1.9972 C   0  0  0  0  0  0  0  0  0  0  0  0
    6.5266   -4.4180    0.7555 C   0  0  0  0  0  0  0  0  0  0  0  0
    7.5138   -5.1445    0.7303 O   0  0  0  0  0  0  0  0  0  0  0  0
    6.0157   -3.8723   -0.3657 O   0  0  0  0  0  0  0  0  0  0  0  0
    5.1362   -2.7609   -0.3178 C   0  0  1  0  0  0  0  0  0  0  0  0
    4.7344   -2.3649   -1.7238 C   0  0  0  0  0  0  0  0  0  0  0  0
    4.5223   -1.0471   -2.2241 C   0  0  0  0  0  0  0  0  0  0  0  0
    4.1995   -1.1671   -3.5452 C   0  0  0  0  0  0  0  0  0  0  0  0
    4.2113   -2.4713   -3.9210 O   0  0  0  0  0  0  0  0  0  0  0  0
    4.5272   -3.1823   -2.8061 C   0  0  0  0  0  0  0  0  0  0  0  0
    2.4993   -3.7726   -0.7424 H   0  0  0  0  0  0  0  0  0  0  0  0
    2.2266   -4.3195    0.8978 H   0  0  0  0  0  0  0  0  0  0  0  0
    3.5275   -5.0175   -0.0385 H   0  0  0  0  0  0  0  0  0  0  0  0
    3.9486   -0.8605    1.0741 H   0  0  0  0  0  0  0  0  0  0  0  0
    2.7165   -1.3986   -0.0267 H   0  0  0  0  0  0  0  0  0  0  0  0
    1.7133   -0.7325    2.0435 H   0  0  0  0  0  0  0  0  0  0  0  0
    1.4549   -2.4460    1.8302 H   0  0  0  0  0  0  0  0  0  0  0  0
    3.6041   -1.1094    3.4405 H   0  0  0  0  0  0  0  0  0  0  0  0
    4.4272   -2.7901    5.4695 H   0  0  0  0  0  0  0  0  0  0  0  0
    5.5589   -2.2057    4.2776 H   0  0  0  0  0  0  0  0  0  0  0  0
    5.4874   -3.9064    4.7175 H   0  0  0  0  0  0  0  0  0  0  0  0
    2.8577   -5.1411    2.8318 H   0  0  0  0  0  0  0  0  0  0  0  0
    3.6422   -5.1778    4.3563 H   0  0  0  0  0  0  0  0  0  0  0  0
    0.9121   -4.1573    3.6602 H   0  0  0  0  0  0  0  0  0  0  0  0
    1.3963   -5.2193    4.9522 H   0  0  0  0  0  0  0  0  0  0  0  0
    2.4805   -3.2792    6.1491 H   0  0  0  0  0  0  0  0  0  0  0  0
    0.0873   -1.9060    3.3912 H   0  0  0  0  0  0  0  0  0  0  0  0
    0.2827   -0.3587    4.2338 H   0  0  0  0  0  0  0  0  0  0  0  0
    1.8653   -0.5975    6.4738 H   0  0  0  0  0  0  0  0  0  0  0  0
    2.4620    0.2809    5.0814 H   0  0  0  0  0  0  0  0  0  0  0  0
    3.4922   -0.8771    5.8970 H   0  0  0  0  0  0  0  0  0  0  0  0
    6.2482   -4.5145    2.8836 H   0  0  0  0  0  0  0  0  0  0  0  0
    5.7340   -1.9240    0.0497 H   0  0  0  0  0  0  0  0  0  0  0  0
    4.6044   -0.1145   -1.6844 H   0  0  0  0  0  0  0  0  0  0  0  0
    3.9604   -0.4579   -4.3257 H   0  0  0  0  0  0  0  0  0  0  0  0
    4.5813   -4.2503   -2.9546 H   0  0  0  0  0  0  0  0  0  0  0  0
  2  1  1  6
  1 28  1  0
  1 29  1  0
  1 30  1  0
  2 17  1  0
  2 22  1  0
  2  3  1  0
  3  4  1  0
  3 31  1  0
  3 32  1  0
  4  5  1  0
  4 33  1  0
  4 34  1  0
  5 15  1  0
  5  6  1  0
  5 35  1  1
  6  7  1  1
  6  8  1  0
  6 17  1  0
  7 36  1  0
  7 37  1  0
  7 38  1  0
  8  9  1  0
  8 39  1  0
  8 40  1  0
  9 10  1  0
  9 41  1  0
  9 42  1  0
 10 15  1  0
 10 11  1  0
 10 43  1  1
 11 12  1  0
 12 13  2  0
 12 14  1  0
 14 15  1  0
 14 44  1  0
 14 45  1  0
 15 16  1  1
 16 46  1  0
 16 47  1  0
 16 48  1  0
 17 18  2  0
 18 19  1  0
 18 49  1  0
 19 20  2  0
 19 21  1  0
 21 22  1  0
 22 23  1  0
 22 50  1  1
 23 27  2  0
 23 24  1  0
 24 25  2  0
 24 51  1  0
 25 26  1  0
 25 52  1  0
 26 27  1  0
 27 53  1  0
M  END
>  <i_m_ct_stereo_status>  (275) 
1

>  <s_m_source_file>  (275) 
/var/tmp/pbs.5076255.sched01/tmp9n4xeji_/82rcfztp6i.sdf

>  <i_m_source_file_index>  (275) 
39

>  <i_lp_mmshare_version>  (275) 
48012

>  <i_f3d_flags>  (275) 
0

>  <s_epik_input>  (275) 
Tz1DKFtDSDJdMSlPW0NAQEhdKFtDSDJdW0NIMl0yKVtDQEBdMShbQ0gzXSlbQ0BIXShbQ0gyXVtDSDJdMylbQ0BdMihbQ0gzXSlDKFtDQEBdMzRbQ0gzXSk9W0NIXUMoPU8pT1tDQEhdNGM1W2NIXVtjSF1vW2NIXTU=

>  <s_epik_cmdline>  (275) 
J2VwaWtfcHl0aG9uJywgJy1waHQnLCAnMi4wJywgJy1waCcsICc3LjAnLCAnLXRuJywgJzgnLCAnLW1hJywgJzIwMCcsICctaW1hZScsICc8aW5maWxlLm1hZT4nLCAnLW9tYWUnLCAnPG91dGZpbGUubWFlPic=

>  <r_lp_tautomer_probability>  (275) 
1

>  <r_epik_Ionization_Penalty>  (275) 
8.68558e-10

>  <r_epik_Ionization_Penalty_Charging>  (275) 
0

>  <r_epik_Ionization_Penalty_Neutral>  (275) 
8.68558e-10

>  <r_epik_State_Penalty>  (275) 
-0

>  <r_epik_Charging_Adjusted_Penalty>  (275) 
0

>  <i_epik_Tot_Q>  (275) 
0

>  <i_epik_Tot_abs_Q>  (275) 
0

>  <s_epik_Chemistry_Notes>  (275) 
This compound has an ester and may undergo hydrolysis at high or low pH.

>  <s_lp_Force_Field>  (275) 
OPLS3e

>  <r_lp_Energy>  (275) 
49.9191

>  <b_lp_Chiralities_Consistent>  (275) 
1

>  <s_lp_Variant>  (275) 
88:0-1

>  <s_i_glide_gridfile>  (275) 
pfpi4k_grid

>  <i_i_glide_lignum>  (275) 
39

>  <i_i_glide_rotatable_bonds>  (275) 
1

>  <r_i_docking_score>  (275) 
-3.63601

>  <r_i_glide_ligand_efficiency>  (275) 
-0.134667

>  <r_i_glide_ligand_efficiency_sa>  (275) 
-0.404001

>  <r_i_glide_ligand_efficiency_ln>  (275) 
-0.846403

>  <r_i_glide_gscore>  (275) 
-3.63601

>  <r_i_glide_lipo>  (275) 
-0.367088

>  <r_i_glide_hbond>  (275) 
-0.173733

>  <r_i_glide_metal>  (275) 
-0

>  <r_i_glide_rewards>  (275) 
-1.03361

>  <r_i_glide_evdw>  (275) 
-28.8865

>  <r_i_glide_ecoul>  (275) 
-4.91142

>  <r_i_glide_erotb>  (275) 
0.140587

>  <r_i_glide_esite>  (275) 
-0.0211263

>  <r_i_glide_emodel>  (275) 
-41.5321

>  <r_i_glide_energy>  (275) 
-33.7979

>  <r_i_glide_einternal>  (275) 
0.0323223

>  <r_i_glide_intrahb_reward>  (275) 
-0

>  <i_i_glide_confnum>  (275) 
3

>  <i_i_glide_posenum>  (275) 
8

>  <r_i_glide_eff_state_penalty>  (275) 
0

>  <ligand_id>  (275) 
88

>  <original_smiles>  (275) 
CC12CCC3C(C)(CCC4OC(=O)CC43C)C1=CC(=O)OC2c1ccoc1

>  <smiles>  (275) 
[H]C1=C2C(C([H])([H])[H])(C([H])(c3c([H])oc([H])c3[H])OC1=O)C([H])([H])C([H])([H])C1([H])C2(C([H])([H])[H])C([H])([H])C([H])([H])C2([H])OC(=O)C([H])([H])C21C([H])([H])[H]

$$$$
88:0:1
     RDKit          3D

 53 57  0  0  1  0  0  0  0  0999 V2000
    2.2115   -3.6737    2.6903 C   0  0  0  0  0  0  0  0  0  0  0  0
    3.0161   -4.8357    2.0574 C   0  0  1  0  0  0  0  0  0  0  0  0
    2.4191   -5.2297    0.7002 C   0  0  0  0  0  0  0  0  0  0  0  0
    2.5971   -4.1340   -0.3448 C   0  0  0  0  0  0  0  0  0  0  0  0
    4.0822   -3.8926   -0.6527 C   0  0  2  0  0  0  0  0  0  0  0  0
    4.9325   -3.5806    0.6445 C   0  0  1  0  0  0  0  0  0  0  0  0
    6.4096   -3.9500    0.3072 C   0  0  0  0  0  0  0  0  0  0  0  0
    4.9044   -2.0618    1.0112 C   0  0  0  0  0  0  0  0  0  0  0  0
    4.4892   -1.1157   -0.1224 C   0  0  0  0  0  0  0  0  0  0  0  0
    4.9946   -1.6013   -1.4850 C   0  0  2  0  0  0  0  0  0  0  0  0
    4.6082   -0.6751   -2.4859 O   0  0  0  0  0  0  0  0  0  0  0  0
    3.5316   -1.0556   -3.1633 C   0  0  0  0  0  0  0  0  0  0  0  0
    3.0200   -0.4755   -4.1145 O   0  0  0  0  0  0  0  0  0  0  0  0
    3.0563   -2.3896   -2.6061 C   0  0  0  0  0  0  0  0  0  0  0  0
    4.3179   -2.9305   -1.8908 C   0  0  2  0  0  0  0  0  0  0  0  0
    5.1550   -3.6563   -2.9714 C   0  0  0  0  0  0  0  0  0  0  0  0
    4.4865   -4.3964    1.9012 C   0  0  0  0  0  0  0  0  0  0  0  0
    5.3610   -4.7130    2.8870 C   0  0  0  0  0  0  0  0  0  0  0  0
    4.9817   -5.4139    4.1281 C   0  0  0  0  0  0  0  0  0  0  0  0
    5.7444   -5.5169    5.0823 O   0  0  0  0  0  0  0  0  0  0  0  0
    3.7161   -5.8846    4.1640 O   0  0  0  0  0  0  0  0  0  0  0  0
    2.9766   -6.1018    2.9726 C   0  0  1  0  0  0  0  0  0  0  0  0
    1.6021   -6.6512    3.3054 C   0  0  0  0  0  0  0  0  0  0  0  0
    1.0243   -7.8697    2.8372 C   0  0  0  0  0  0  0  0  0  0  0  0
   -0.2049   -7.9799    3.4255 C   0  0  0  0  0  0  0  0  0  0  0  0
   -0.4486   -6.9106    4.2268 O   0  0  0  0  0  0  0  0  0  0  0  0
    0.6586   -6.1257    4.1513 C   0  0  0  0  0  0  0  0  0  0  0  0
    1.1495   -3.9021    2.7736 H   0  0  0  0  0  0  0  0  0  0  0  0
    2.2759   -2.7578    2.1064 H   0  0  0  0  0  0  0  0  0  0  0  0
    2.5750   -3.4358    3.6922 H   0  0  0  0  0  0  0  0  0  0  0  0
    2.8799   -6.1500    0.3376 H   0  0  0  0  0  0  0  0  0  0  0  0
    1.3619   -5.4612    0.8093 H   0  0  0  0  0  0  0  0  0  0  0  0
    2.0850   -4.4662   -1.2485 H   0  0  0  0  0  0  0  0  0  0  0  0
    2.1020   -3.2123   -0.0414 H   0  0  0  0  0  0  0  0  0  0  0  0
    4.4215   -4.8765   -0.9774 H   0  0  0  0  0  0  0  0  0  0  0  0
    6.7675   -3.4743   -0.5976 H   0  0  0  0  0  0  0  0  0  0  0  0
    6.5256   -5.0248    0.1654 H   0  0  0  0  0  0  0  0  0  0  0  0
    7.1203   -3.6404    1.0722 H   0  0  0  0  0  0  0  0  0  0  0  0
    4.2510   -1.8670    1.8609 H   0  0  0  0  0  0  0  0  0  0  0  0
    5.8907   -1.7556    1.3648 H   0  0  0  0  0  0  0  0  0  0  0  0
    3.4005   -1.0290   -0.1415 H   0  0  0  0  0  0  0  0  0  0  0  0
    4.8623   -0.1119    0.0821 H   0  0  0  0  0  0  0  0  0  0  0  0
    6.0798   -1.6807   -1.4842 H   0  0  0  0  0  0  0  0  0  0  0  0
    2.2305   -2.1739   -1.9294 H   0  0  0  0  0  0  0  0  0  0  0  0
    2.6928   -3.0417   -3.4016 H   0  0  0  0  0  0  0  0  0  0  0  0
    5.3976   -3.0140   -3.8162 H   0  0  0  0  0  0  0  0  0  0  0  0
    4.6164   -4.5153   -3.3749 H   0  0  0  0  0  0  0  0  0  0  0  0
    6.0998   -4.0243   -2.5845 H   0  0  0  0  0  0  0  0  0  0  0  0
    6.3887   -4.4080    2.8575 H   0  0  0  0  0  0  0  0  0  0  0  0
    3.4848   -6.9119    2.4436 H   0  0  0  0  0  0  0  0  0  0  0  0
    1.4648   -8.6047    2.1763 H   0  0  0  0  0  0  0  0  0  0  0  0
   -0.9839   -8.7304    3.3995 H   0  0  0  0  0  0  0  0  0  0  0  0
    0.6250   -5.2439    4.7719 H   0  0  0  0  0  0  0  0  0  0  0  0
  2  1  1  1
  1 28  1  0
  1 29  1  0
  1 30  1  0
  2 17  1  0
  2 22  1  0
  2  3  1  0
  3  4  1  0
  3 31  1  0
  3 32  1  0
  4  5  1  0
  4 33  1  0
  4 34  1  0
  5 15  1  0
  5  6  1  0
  5 35  1  6
  6  7  1  6
  6  8  1  0
  6 17  1  0
  7 36  1  0
  7 37  1  0
  7 38  1  0
  8  9  1  0
  8 39  1  0
  8 40  1  0
  9 10  1  0
  9 41  1  0
  9 42  1  0
 10 15  1  0
 10 11  1  0
 10 43  1  1
 11 12  1  0
 12 13  2  0
 12 14  1  0
 14 15  1  0
 14 44  1  0
 14 45  1  0
 15 16  1  6
 16 46  1  0
 16 47  1  0
 16 48  1  0
 17 18  2  0
 18 19  1  0
 18 49  1  0
 19 20  2  0
 19 21  1  0
 21 22  1  0
 22 23  1  0
 22 50  1  6
 23 27  2  0
 23 24  1  0
 24 25  2  0
 24 51  1  0
 25 26  1  0
 25 52  1  0
 26 27  1  0
 27 53  1  0
M  END
>  <i_m_ct_stereo_status>  (276) 
1

>  <s_m_source_file>  (276) 
/var/tmp/pbs.5076255.sched01/tmp9n4xeji_/82rcfztp6i.sdf

>  <i_m_source_file_index>  (276) 
39

>  <i_lp_mmshare_version>  (276) 
48012

>  <i_f3d_flags>  (276) 
0

>  <s_epik_input>  (276) 
Tz1DKFtDSDJdMSlPW0NAQEhdKFtDSDJdW0NIMl0yKVtDQEBdMShbQ0gzXSlbQ0BIXShbQ0gyXVtDSDJdMylbQ0BdMihbQ0gzXSlDKFtDQEBdMzRbQ0gzXSk9W0NIXUMoPU8pT1tDQEhdNGM1W2NIXVtjSF1vW2NIXTU=

>  <s_epik_cmdline>  (276) 
J2VwaWtfcHl0aG9uJywgJy1waHQnLCAnMi4wJywgJy1waCcsICc3LjAnLCAnLXRuJywgJzgnLCAnLW1hJywgJzIwMCcsICctaW1hZScsICc8aW5maWxlLm1hZT4nLCAnLW9tYWUnLCAnPG91dGZpbGUubWFlPic=

>  <r_lp_tautomer_probability>  (276) 
1

>  <r_epik_Ionization_Penalty>  (276) 
8.68558e-10

>  <r_epik_Ionization_Penalty_Charging>  (276) 
0

>  <r_epik_Ionization_Penalty_Neutral>  (276) 
8.68558e-10

>  <r_epik_State_Penalty>  (276) 
-0

>  <r_epik_Charging_Adjusted_Penalty>  (276) 
0

>  <i_epik_Tot_Q>  (276) 
0

>  <i_epik_Tot_abs_Q>  (276) 
0

>  <s_epik_Chemistry_Notes>  (276) 
This compound has an ester and may undergo hydrolysis at high or low pH.

>  <s_lp_Force_Field>  (276) 
OPLS3e

>  <r_lp_Energy>  (276) 
49.9191

>  <b_lp_Chiralities_Consistent>  (276) 
1

>  <s_lp_Variant>  (276) 
88:0-1

>  <s_i_glide_gridfile>  (276) 
pfpi4k_grid

>  <i_i_glide_lignum>  (276) 
39

>  <i_i_glide_rotatable_bonds>  (276) 
1

>  <r_i_docking_score>  (276) 
-3.035

>  <r_i_glide_ligand_efficiency>  (276) 
-0.112408

>  <r_i_glide_ligand_efficiency_sa>  (276) 
-0.337223

>  <r_i_glide_ligand_efficiency_ln>  (276) 
-0.706499

>  <r_i_glide_gscore>  (276) 
-3.035

>  <r_i_glide_lipo>  (276) 
-0.320641

>  <r_i_glide_hbond>  (276) 
0

>  <r_i_glide_metal>  (276) 
-0

>  <r_i_glide_rewards>  (276) 
-0.975796

>  <r_i_glide_evdw>  (276) 
-33.2022

>  <r_i_glide_ecoul>  (276) 
-1.4603

>  <r_i_glide_erotb>  (276) 
0.140587

>  <r_i_glide_esite>  (276) 
0

>  <r_i_glide_emodel>  (276) 
-41.0052

>  <r_i_glide_energy>  (276) 
-34.6625

>  <r_i_glide_einternal>  (276) 
0.101934

>  <r_i_glide_intrahb_reward>  (276) 
-0

>  <i_i_glide_confnum>  (276) 
2

>  <i_i_glide_posenum>  (276) 
24

>  <r_i_glide_eff_state_penalty>  (276) 
0

>  <ligand_id>  (276) 
88

>  <original_smiles>  (276) 
CC12CCC3C(C)(CCC4OC(=O)CC43C)C1=CC(=O)OC2c1ccoc1

>  <smiles>  (276) 
[H]C1=C2C(C([H])([H])[H])(C([H])(c3c([H])oc([H])c3[H])OC1=O)C([H])([H])C([H])([H])C1([H])C2(C([H])([H])[H])C([H])([H])C([H])([H])C2([H])OC(=O)C([H])([H])C21C([H])([H])[H]

$$$$
88:0:2
     RDKit          3D

 53 57  0  0  1  0  0  0  0  0999 V2000
    2.2116   -3.7190    2.5912 C   0  0  0  0  0  0  0  0  0  0  0  0
    3.0165   -4.8560    1.9182 C   0  0  1  0  0  0  0  0  0  0  0  0
    2.4169   -5.2054    0.5492 C   0  0  0  0  0  0  0  0  0  0  0  0
    2.5921   -4.0776   -0.4627 C   0  0  0  0  0  0  0  0  0  0  0  0
    4.0792   -3.8426   -0.7648 C   0  0  2  0  0  0  0  0  0  0  0  0
    4.9308   -3.5650    0.5383 C   0  0  1  0  0  0  0  0  0  0  0  0
    6.4067   -3.9278    0.1938 C   0  0  0  0  0  0  0  0  0  0  0  0
    4.9041   -2.0567    0.9445 C   0  0  0  0  0  0  0  0  0  0  0  0
    4.4908   -1.0824   -0.1660 C   0  0  0  0  0  0  0  0  0  0  0  0
    4.9951   -1.5368   -1.5398 C   0  0  2  0  0  0  0  0  0  0  0  0
    4.6116   -0.5923   -2.5231 O   0  0  0  0  0  0  0  0  0  0  0  0
    3.5323   -0.9507   -3.2070 C   0  0  0  0  0  0  0  0  0  0  0  0
    3.0191   -0.3482   -4.1425 O   0  0  0  0  0  0  0  0  0  0  0  0
    3.0540   -2.2942   -2.6798 C   0  0  0  0  0  0  0  0  0  0  0  0
    4.3165   -2.8525   -1.9781 C   0  0  2  0  0  0  0  0  0  0  0  0
    5.1570   -3.5500   -3.0746 C   0  0  0  0  0  0  0  0  0  0  0  0
    4.4863   -4.4105    1.7727 C   0  0  0  0  0  0  0  0  0  0  0  0
    5.3616   -4.7530    2.7496 C   0  0  0  0  0  0  0  0  0  0  0  0
    4.9809   -5.4816    3.9718 C   0  0  0  0  0  0  0  0  0  0  0  0
    5.7425   -5.6110    4.9231 O   0  0  0  0  0  0  0  0  0  0  0  0
    3.7153   -5.9523    3.9940 O   0  0  0  0  0  0  0  0  0  0  0  0
    2.9806   -6.1472    2.7950 C   0  0  1  0  0  0  0  0  0  0  0  0
    1.6062   -6.7130    3.1043 C   0  0  0  0  0  0  0  0  0  0  0  0
    0.7979   -6.4789    4.2586 C   0  0  0  0  0  0  0  0  0  0  0  0
   -0.3292   -7.2383    4.1160 C   0  0  0  0  0  0  0  0  0  0  0  0
   -0.2987   -7.9244    2.9467 O   0  0  0  0  0  0  0  0  0  0  0  0
    0.8808   -7.6034    2.3514 C   0  0  0  0  0  0  0  0  0  0  0  0
    1.1530   -3.9676    2.6852 H   0  0  0  0  0  0  0  0  0  0  0  0
    2.2651   -2.7878    2.0291 H   0  0  0  0  0  0  0  0  0  0  0  0
    2.5813   -3.4995    3.5948 H   0  0  0  0  0  0  0  0  0  0  0  0
    2.8800   -6.1137    0.1609 H   0  0  0  0  0  0  0  0  0  0  0  0
    1.3610   -5.4443    0.6499 H   0  0  0  0  0  0  0  0  0  0  0  0
    2.0760   -4.3743   -1.3776 H   0  0  0  0  0  0  0  0  0  0  0  0
    2.1020   -3.1631   -0.1292 H   0  0  0  0  0  0  0  0  0  0  0  0
    4.4154   -4.8187   -1.1137 H   0  0  0  0  0  0  0  0  0  0  0  0
    6.7640   -3.4333   -0.7001 H   0  0  0  0  0  0  0  0  0  0  0  0
    6.5190   -4.9997    0.0326 H   0  0  0  0  0  0  0  0  0  0  0  0
    7.1179   -3.6366    0.9654 H   0  0  0  0  0  0  0  0  0  0  0  0
    4.2514   -1.8832    1.8008 H   0  0  0  0  0  0  0  0  0  0  0  0
    5.8928   -1.7627    1.3038 H   0  0  0  0  0  0  0  0  0  0  0  0
    3.4018   -0.9913   -0.1824 H   0  0  0  0  0  0  0  0  0  0  0  0
    4.8682   -0.0859    0.0650 H   0  0  0  0  0  0  0  0  0  0  0  0
    6.0796   -1.6164   -1.5424 H   0  0  0  0  0  0  0  0  0  0  0  0
    2.2287   -2.0863   -1.9995 H   0  0  0  0  0  0  0  0  0  0  0  0
    2.6900   -2.9228   -3.4949 H   0  0  0  0  0  0  0  0  0  0  0  0
    5.3939   -2.8847   -3.9025 H   0  0  0  0  0  0  0  0  0  0  0  0
    4.6166   -4.3988   -3.5007 H   0  0  0  0  0  0  0  0  0  0  0  0
    6.1033   -3.9271   -2.6975 H   0  0  0  0  0  0  0  0  0  0  0  0
    6.3919   -4.4522    2.7298 H   0  0  0  0  0  0  0  0  0  0  0  0
    3.4952   -6.9402    2.2469 H   0  0  0  0  0  0  0  0  0  0  0  0
    1.0304   -5.8621    5.1154 H   0  0  0  0  0  0  0  0  0  0  0  0
   -1.1993   -7.4166    4.7300 H   0  0  0  0  0  0  0  0  0  0  0  0
    1.0610   -8.1238    1.4213 H   0  0  0  0  0  0  0  0  0  0  0  0
  2  1  1  1
  1 28  1  0
  1 29  1  0
  1 30  1  0
  2 17  1  0
  2 22  1  0
  2  3  1  0
  3  4  1  0
  3 31  1  0
  3 32  1  0
  4  5  1  0
  4 33  1  0
  4 34  1  0
  5 15  1  0
  5  6  1  0
  5 35  1  6
  6  7  1  6
  6  8  1  0
  6 17  1  0
  7 36  1  0
  7 37  1  0
  7 38  1  0
  8  9  1  0
  8 39  1  0
  8 40  1  0
  9 10  1  0
  9 41  1  0
  9 42  1  0
 10 15  1  0
 10 11  1  0
 10 43  1  1
 11 12  1  0
 12 13  2  0
 12 14  1  0
 14 15  1  0
 14 44  1  0
 14 45  1  0
 15 16  1  6
 16 46  1  0
 16 47  1  0
 16 48  1  0
 17 18  2  0
 18 19  1  0
 18 49  1  0
 19 20  2  0
 19 21  1  0
 21 22  1  0
 22 23  1  0
 22 50  1  6
 23 27  2  0
 23 24  1  0
 24 25  2  0
 24 51  1  0
 25 26  1  0
 25 52  1  0
 26 27  1  0
 27 53  1  0
M  END
>  <i_m_ct_stereo_status>  (277) 
1

>  <s_m_source_file>  (277) 
/var/tmp/pbs.5076255.sched01/tmp9n4xeji_/82rcfztp6i.sdf

>  <i_m_source_file_index>  (277) 
39

>  <i_lp_mmshare_version>  (277) 
48012

>  <i_f3d_flags>  (277) 
0

>  <s_epik_input>  (277) 
Tz1DKFtDSDJdMSlPW0NAQEhdKFtDSDJdW0NIMl0yKVtDQEBdMShbQ0gzXSlbQ0BIXShbQ0gyXVtDSDJdMylbQ0BdMihbQ0gzXSlDKFtDQEBdMzRbQ0gzXSk9W0NIXUMoPU8pT1tDQEhdNGM1W2NIXVtjSF1vW2NIXTU=

>  <s_epik_cmdline>  (277) 
J2VwaWtfcHl0aG9uJywgJy1waHQnLCAnMi4wJywgJy1waCcsICc3LjAnLCAnLXRuJywgJzgnLCAnLW1hJywgJzIwMCcsICctaW1hZScsICc8aW5maWxlLm1hZT4nLCAnLW9tYWUnLCAnPG91dGZpbGUubWFlPic=

>  <r_lp_tautomer_probability>  (277) 
1

>  <r_epik_Ionization_Penalty>  (277) 
8.68558e-10

>  <r_epik_Ionization_Penalty_Charging>  (277) 
0

>  <r_epik_Ionization_Penalty_Neutral>  (277) 
8.68558e-10

>  <r_epik_State_Penalty>  (277) 
-0

>  <r_epik_Charging_Adjusted_Penalty>  (277) 
0

>  <i_epik_Tot_Q>  (277) 
0

>  <i_epik_Tot_abs_Q>  (277) 
0

>  <s_epik_Chemistry_Notes>  (277) 
This compound has an ester and may undergo hydrolysis at high or low pH.

>  <s_lp_Force_Field>  (277) 
OPLS3e

>  <r_lp_Energy>  (277) 
49.9191

>  <b_lp_Chiralities_Consistent>  (277) 
1

>  <s_lp_Variant>  (277) 
88:0-1

>  <s_i_glide_gridfile>  (277) 
pfpi4k_grid

>  <i_i_glide_lignum>  (277) 
39

>  <i_i_glide_rotatable_bonds>  (277) 
1

>  <r_i_docking_score>  (277) 
-3.02034

>  <r_i_glide_ligand_efficiency>  (277) 
-0.111865

>  <r_i_glide_ligand_efficiency_sa>  (277) 
-0.335594

>  <r_i_glide_ligand_efficiency_ln>  (277) 
-0.703086

>  <r_i_glide_gscore>  (277) 
-3.02034

>  <r_i_glide_lipo>  (277) 
-0.365187

>  <r_i_glide_hbond>  (277) 
0

>  <r_i_glide_metal>  (277) 
-0

>  <r_i_glide_rewards>  (277) 
-1.0112

>  <r_i_glide_evdw>  (277) 
-33.6751

>  <r_i_glide_ecoul>  (277) 
-0.671944

>  <r_i_glide_erotb>  (277) 
0.140587

>  <r_i_glide_esite>  (277) 
0

>  <r_i_glide_emodel>  (277) 
-40.6933

>  <r_i_glide_energy>  (277) 
-34.347

>  <r_i_glide_einternal>  (277) 
0.0344403

>  <r_i_glide_intrahb_reward>  (277) 
-0

>  <i_i_glide_confnum>  (277) 
2

>  <i_i_glide_posenum>  (277) 
21

>  <r_i_glide_eff_state_penalty>  (277) 
0

>  <ligand_id>  (277) 
88

>  <original_smiles>  (277) 
CC12CCC3C(C)(CCC4OC(=O)CC43C)C1=CC(=O)OC2c1ccoc1

>  <smiles>  (277) 
[H]C1=C2C(C([H])([H])[H])(C([H])(c3c([H])oc([H])c3[H])OC1=O)C([H])([H])C([H])([H])C1([H])C2(C([H])([H])[H])C([H])([H])C([H])([H])C2([H])OC(=O)C([H])([H])C21C([H])([H])[H]

$$$$
89:0:0
     RDKit          3D

 48 51  0  0  1  0  0  0  0  0999 V2000
    2.7040   -5.2906    1.6984 C   0  0  0  0  0  0  0  0  0  0  0  0
    3.3427   -3.8918    1.4793 C   0  0  2  0  0  0  0  0  0  0  0  0
    2.5942   -3.0990    0.3881 C   0  0  0  0  0  0  0  0  0  0  0  0
    2.7529   -3.4378   -1.0938 C   0  0  0  0  0  0  0  0  0  0  0  0
    3.7949   -2.6404   -1.9448 C   0  0  2  0  0  0  0  0  0  0  0  0
    3.2900   -2.7845   -3.4088 C   0  0  0  0  0  0  0  0  0  0  0  0
    5.1197   -3.3897   -1.9525 C   0  0  0  0  0  0  0  0  0  0  0  0
    5.0306   -4.5964   -2.0826 O   0  0  0  0  0  0  0  0  0  0  0  0
    6.5048   -2.7483   -1.8642 C   0  0  0  0  0  0  0  0  0  0  0  0
    7.3102   -3.1926   -0.6298 C   0  0  0  0  0  0  0  0  0  0  0  0
    7.0167   -2.5328    0.7323 C   0  0  0  0  0  0  0  0  0  0  0  0
    5.5921   -2.5815    1.3620 C   0  0  2  0  0  0  0  0  0  0  0  0
    4.8300   -1.2601    1.0789 C   0  0  0  0  0  0  0  0  0  0  0  0
    4.7921   -0.6721   -0.3425 C   0  0  0  0  0  0  0  0  0  0  0  0
    3.8664   -1.1392   -1.5181 C   0  0  1  0  0  0  0  0  0  0  0  0
    4.1575   -0.2514   -2.7383 C   0  0  0  0  0  0  0  0  0  0  0  0
    5.8111   -2.4695    2.7767 O   0  0  0  0  0  0  0  0  0  0  0  0
    5.7734   -3.8432    3.4046 O   0  0  0  0  0  0  0  0  0  0  0  0
    5.5352   -4.7132    2.3403 C   0  0  0  0  0  0  0  0  0  0  0  0
    5.4183   -6.0920    2.5766 O   0  0  0  0  0  0  0  0  0  0  0  0
    6.6717   -5.4621    2.0075 O   0  0  0  0  0  0  0  0  0  0  0  0
    4.8632   -3.9485    1.2518 C   0  0  1  0  0  0  0  0  0  0  0  0
    2.9742   -5.9867    0.9031 H   0  0  0  0  0  0  0  0  0  0  0  0
    1.6163   -5.2512    1.7528 H   0  0  0  0  0  0  0  0  0  0  0  0
    3.0163   -5.7287    2.6449 H   0  0  0  0  0  0  0  0  0  0  0  0
    3.1571   -3.3550    2.4102 H   0  0  0  0  0  0  0  0  0  0  0  0
    1.5869   -3.3602    0.5798 H   0  0  0  0  0  0  0  0  0  0  0  0
    2.4690   -2.0390    0.5483 H   0  0  0  0  0  0  0  0  0  0  0  0
    2.8714   -4.5167   -1.1152 H   0  0  0  0  0  0  0  0  0  0  0  0
    1.7798   -3.2769   -1.5557 H   0  0  0  0  0  0  0  0  0  0  0  0
    2.3480   -2.2606   -3.5624 H   0  0  0  0  0  0  0  0  0  0  0  0
    3.1154   -3.8280   -3.6742 H   0  0  0  0  0  0  0  0  0  0  0  0
    4.0113   -2.4096   -4.1409 H   0  0  0  0  0  0  0  0  0  0  0  0
    7.0543   -3.1271   -2.7215 H   0  0  0  0  0  0  0  0  0  0  0  0
    6.5055   -1.6740   -2.0116 H   0  0  0  0  0  0  0  0  0  0  0  0
    7.2260   -4.2669   -0.4935 H   0  0  0  0  0  0  0  0  0  0  0  0
    8.3691   -3.0370   -0.8433 H   0  0  0  0  0  0  0  0  0  0  0  0
    7.6848   -3.0648    1.4027 H   0  0  0  0  0  0  0  0  0  0  0  0
    7.3771   -1.5058    0.7143 H   0  0  0  0  0  0  0  0  0  0  0  0
    3.8837   -1.1941    1.6042 H   0  0  0  0  0  0  0  0  0  0  0  0
    5.3849   -0.5083    1.6357 H   0  0  0  0  0  0  0  0  0  0  0  0
    4.4107    0.3212   -0.1274 H   0  0  0  0  0  0  0  0  0  0  0  0
    5.8086   -0.4559   -0.6608 H   0  0  0  0  0  0  0  0  0  0  0  0
    2.8642   -0.8603   -1.2300 H   0  0  0  0  0  0  0  0  0  0  0  0
    5.0880   -0.5303   -3.1827 H   0  0  0  0  0  0  0  0  0  0  0  0
    4.2256    0.7943   -2.4547 H   0  0  0  0  0  0  0  0  0  0  0  0
    3.3713   -0.2528   -3.4940 H   0  0  0  0  0  0  0  0  0  0  0  0
    5.0604   -4.5091    0.3499 H   0  0  0  0  0  0  0  0  0  0  0  0
  1  2  1  0
  1 23  1  0
  1 24  1  0
  1 25  1  0
  2 22  1  0
  2  3  1  0
  2 26  1  1
  3  4  1  0
  3 27  1  0
  3 28  1  0
  4  5  1  0
  4 29  1  0
  4 30  1  0
  5 15  1  0
  5  6  1  6
  5  7  1  0
  6 31  1  0
  6 32  1  0
  6 33  1  0
  7  8  2  0
  7  9  1  0
  9 10  1  0
  9 34  1  0
  9 35  1  0
 10 11  1  0
 10 36  1  0
 10 37  1  0
 11 12  1  0
 11 38  1  0
 11 39  1  0
 12 22  1  0
 12 13  1  0
 12 17  1  1
 13 14  1  0
 13 40  1  0
 13 41  1  0
 14 15  1  0
 14 42  1  0
 14 43  1  0
 15 16  1  0
 15 44  1  1
 16 45  1  0
 16 46  1  0
 16 47  1  0
 17 18  1  0
 18 19  1  0
 19 21  1  0
 19 20  1  0
 19 22  1  0
 20 21  1  0
 22 48  1  6
M  END
>  <i_m_ct_stereo_status>  (278) 
1

>  <s_m_source_file>  (278) 
/var/tmp/pbs.5076255.sched01/tmp9n4xeji_/82rcfztp6i.sdf

>  <i_m_source_file_index>  (278) 
40

>  <i_lp_mmshare_version>  (278) 
48012

>  <i_f3d_flags>  (278) 
0

>  <s_epik_input>  (278) 
TzFPQzIoT08yKVtDQEhdKFtDQEBdMTM0KVtDQEhdKFtDSDNdKVtDSDJdW0NIMl1bQ0BAXShbQ0gzXSkoW0NASF0oW0NIM10pW0NIMl1bQ0gyXTQpQyg9TylbQ0gyXVtDSDJdW0NIMl0z

>  <s_epik_cmdline>  (278) 
J2VwaWtfcHl0aG9uJywgJy1waHQnLCAnMi4wJywgJy1waCcsICc3LjAnLCAnLXRuJywgJzgnLCAnLW1hJywgJzIwMCcsICctaW1hZScsICc8aW5maWxlLm1hZT4nLCAnLW9tYWUnLCAnPG91dGZpbGUubWFlPic=

>  <r_lp_tautomer_probability>  (278) 
1

>  <r_epik_Ionization_Penalty>  (278) 
6.60423e-14

>  <r_epik_Ionization_Penalty_Charging>  (278) 
0

>  <r_epik_Ionization_Penalty_Neutral>  (278) 
6.60423e-14

>  <r_epik_State_Penalty>  (278) 
-0

>  <r_epik_Charging_Adjusted_Penalty>  (278) 
0

>  <i_epik_Tot_Q>  (278) 
0

>  <i_epik_Tot_abs_Q>  (278) 
0

>  <s_lp_Force_Field>  (278) 
OPLS3e

>  <r_lp_Energy>  (278) 
64.3498

>  <b_lp_Chiralities_Consistent>  (278) 
1

>  <s_lp_Variant>  (278) 
89:0-1

>  <s_i_glide_gridfile>  (278) 
pfpi4k_grid

>  <i_i_glide_lignum>  (278) 
40

>  <i_i_glide_rotatable_bonds>  (278) 
0

>  <r_i_docking_score>  (278) 
-2.67516

>  <r_i_glide_ligand_efficiency>  (278) 
-0.121598

>  <r_i_glide_ligand_efficiency_sa>  (278) 
-0.340723

>  <r_i_glide_ligand_efficiency_ln>  (278) 
-0.653906

>  <r_i_glide_gscore>  (278) 
-2.67516

>  <r_i_glide_lipo>  (278) 
-0.767967

>  <r_i_glide_hbond>  (278) 
0

>  <r_i_glide_metal>  (278) 
-0

>  <r_i_glide_rewards>  (278) 
-1.49337

>  <r_i_glide_evdw>  (278) 
-11.5022

>  <r_i_glide_ecoul>  (278) 
1.07527

>  <r_i_glide_erotb>  (278) 
0

>  <r_i_glide_esite>  (278) 
0

>  <r_i_glide_emodel>  (278) 
-10.2218

>  <r_i_glide_energy>  (278) 
-10.4269

>  <r_i_glide_einternal>  (278) 
0

>  <r_i_glide_intrahb_reward>  (278) 
-0

>  <i_i_glide_confnum>  (278) 
2

>  <i_i_glide_posenum>  (278) 
23

>  <r_i_glide_eff_state_penalty>  (278) 
0

>  <ligand_id>  (278) 
89

>  <original_smiles>  (278) 
CC1CCC2(C)C(=O)CCCC3(CCC2C)OOC2(OO2)C13

>  <smiles>  (278) 
[H]C([H])([H])C1([H])C([H])([H])C([H])([H])C2(C([H])([H])[H])C(=O)C([H])([H])C([H])([H])C([H])([H])C3(OOC4(OO4)C13[H])C([H])([H])C([H])([H])C2([H])C([H])([H])[H]

$$$$
89:0:1
     RDKit          3D

 48 51  0  0  1  0  0  0  0  0999 V2000
    3.4047   -6.1113    1.7709 C   0  0  0  0  0  0  0  0  0  0  0  0
    3.1657   -4.6018    1.5392 C   0  0  2  0  0  0  0  0  0  0  0  0
    3.0189   -4.3534    0.0097 C   0  0  0  0  0  0  0  0  0  0  0  0
    4.3019   -4.2604   -0.8469 C   0  0  0  0  0  0  0  0  0  0  0  0
    5.0161   -2.9026   -1.1257 C   0  0  2  0  0  0  0  0  0  0  0  0
    5.7052   -3.1146   -2.5020 C   0  0  0  0  0  0  0  0  0  0  0  0
    6.2128   -2.7264   -0.1719 C   0  0  0  0  0  0  0  0  0  0  0  0
    6.9694   -3.6761    0.0532 O   0  0  0  0  0  0  0  0  0  0  0  0
    6.5477   -1.3822    0.4634 C   0  0  0  0  0  0  0  0  0  0  0  0
    6.3702   -1.4254    1.9857 C   0  0  0  0  0  0  0  0  0  0  0  0
    5.0227   -1.2183    2.6872 C   0  0  0  0  0  0  0  0  0  0  0  0
    3.8501   -2.1818    2.3633 C   0  0  2  0  0  0  0  0  0  0  0  0
    2.9351   -1.5506    1.3026 C   0  0  0  0  0  0  0  0  0  0  0  0
    3.5372   -0.9146    0.0339 C   0  0  0  0  0  0  0  0  0  0  0  0
    3.9998   -1.6997   -1.2437 C   0  0  1  0  0  0  0  0  0  0  0  0
    4.4532   -0.6653   -2.2975 C   0  0  0  0  0  0  0  0  0  0  0  0
    3.0222   -2.1300    3.5341 O   0  0  0  0  0  0  0  0  0  0  0  0
    3.3696   -3.2854    4.4367 O   0  0  0  0  0  0  0  0  0  0  0  0
    4.3195   -4.0300    3.7269 C   0  0  0  0  0  0  0  0  0  0  0  0
    4.7764   -5.2758    4.2807 O   0  0  0  0  0  0  0  0  0  0  0  0
    5.6151   -4.0247    4.3344 O   0  0  0  0  0  0  0  0  0  0  0  0
    4.2029   -3.7014    2.2762 C   0  0  1  0  0  0  0  0  0  0  0  0
    4.4277   -6.3999    1.5250 H   0  0  0  0  0  0  0  0  0  0  0  0
    2.7358   -6.7298    1.1713 H   0  0  0  0  0  0  0  0  0  0  0  0
    3.2093   -6.3967    2.8022 H   0  0  0  0  0  0  0  0  0  0  0  0
    2.1937   -4.3858    1.9833 H   0  0  0  0  0  0  0  0  0  0  0  0
    2.4634   -5.2064   -0.3767 H   0  0  0  0  0  0  0  0  0  0  0  0
    2.3246   -3.5588   -0.2405 H   0  0  0  0  0  0  0  0  0  0  0  0
    4.9953   -5.0501   -0.5546 H   0  0  0  0  0  0  0  0  0  0  0  0
    3.9731   -4.5667   -1.8297 H   0  0  0  0  0  0  0  0  0  0  0  0
    4.9875   -3.2052   -3.3202 H   0  0  0  0  0  0  0  0  0  0  0  0
    6.3053   -4.0171   -2.5263 H   0  0  0  0  0  0  0  0  0  0  0  0
    6.3902   -2.2989   -2.7181 H   0  0  0  0  0  0  0  0  0  0  0  0
    7.6109   -1.2472    0.2683 H   0  0  0  0  0  0  0  0  0  0  0  0
    6.0849   -0.5260   -0.0071 H   0  0  0  0  0  0  0  0  0  0  0  0
    6.7185   -2.3979    2.3174 H   0  0  0  0  0  0  0  0  0  0  0  0
    7.0463   -0.6751    2.4007 H   0  0  0  0  0  0  0  0  0  0  0  0
    5.2445   -1.2968    3.7546 H   0  0  0  0  0  0  0  0  0  0  0  0
    4.7146   -0.1816    2.5523 H   0  0  0  0  0  0  0  0  0  0  0  0
    2.0394   -2.1324    1.1251 H   0  0  0  0  0  0  0  0  0  0  0  0
    2.5074   -0.6926    1.8216 H   0  0  0  0  0  0  0  0  0  0  0  0
    2.6870   -0.3442   -0.3184 H   0  0  0  0  0  0  0  0  0  0  0  0
    4.2145   -0.1129    0.3095 H   0  0  0  0  0  0  0  0  0  0  0  0
    3.0864   -2.1083   -1.6769 H   0  0  0  0  0  0  0  0  0  0  0  0
    5.4264   -0.2414   -2.0553 H   0  0  0  0  0  0  0  0  0  0  0  0
    3.7463    0.1457   -2.3568 H   0  0  0  0  0  0  0  0  0  0  0  0
    4.4945   -1.0471   -3.3151 H   0  0  0  0  0  0  0  0  0  0  0  0
    5.1778   -3.9219    1.8632 H   0  0  0  0  0  0  0  0  0  0  0  0
  1  2  1  0
  1 23  1  0
  1 24  1  0
  1 25  1  0
  2 22  1  0
  2  3  1  0
  2 26  1  1
  3  4  1  0
  3 27  1  0
  3 28  1  0
  4  5  1  0
  4 29  1  0
  4 30  1  0
  5 15  1  0
  5  6  1  6
  5  7  1  0
  6 31  1  0
  6 32  1  0
  6 33  1  0
  7  8  2  0
  7  9  1  0
  9 10  1  0
  9 34  1  0
  9 35  1  0
 10 11  1  0
 10 36  1  0
 10 37  1  0
 11 12  1  0
 11 38  1  0
 11 39  1  0
 12 22  1  0
 12 13  1  0
 12 17  1  1
 13 14  1  0
 13 40  1  0
 13 41  1  0
 14 15  1  0
 14 42  1  0
 14 43  1  0
 15 16  1  0
 15 44  1  6
 16 45  1  0
 16 46  1  0
 16 47  1  0
 17 18  1  0
 18 19  1  0
 19 21  1  0
 19 20  1  0
 19 22  1  0
 20 21  1  0
 22 48  1  6
M  END
>  <i_m_ct_stereo_status>  (279) 
1

>  <s_m_source_file>  (279) 
/var/tmp/pbs.5076255.sched01/tmp9n4xeji_/82rcfztp6i.sdf

>  <i_m_source_file_index>  (279) 
40

>  <i_lp_mmshare_version>  (279) 
48012

>  <i_f3d_flags>  (279) 
0

>  <s_epik_input>  (279) 
TzFPQzIoT08yKVtDQEhdKFtDQEBdMTM0KVtDQEhdKFtDSDNdKVtDSDJdW0NIMl1bQ0BAXShbQ0gzXSkoW0NASF0oW0NIM10pW0NIMl1bQ0gyXTQpQyg9TylbQ0gyXVtDSDJdW0NIMl0z

>  <s_epik_cmdline>  (279) 
J2VwaWtfcHl0aG9uJywgJy1waHQnLCAnMi4wJywgJy1waCcsICc3LjAnLCAnLXRuJywgJzgnLCAnLW1hJywgJzIwMCcsICctaW1hZScsICc8aW5maWxlLm1hZT4nLCAnLW9tYWUnLCAnPG91dGZpbGUubWFlPic=

>  <r_lp_tautomer_probability>  (279) 
1

>  <r_epik_Ionization_Penalty>  (279) 
6.60423e-14

>  <r_epik_Ionization_Penalty_Charging>  (279) 
0

>  <r_epik_Ionization_Penalty_Neutral>  (279) 
6.60423e-14

>  <r_epik_State_Penalty>  (279) 
-0

>  <r_epik_Charging_Adjusted_Penalty>  (279) 
0

>  <i_epik_Tot_Q>  (279) 
0

>  <i_epik_Tot_abs_Q>  (279) 
0

>  <s_lp_Force_Field>  (279) 
OPLS3e

>  <r_lp_Energy>  (279) 
64.3498

>  <b_lp_Chiralities_Consistent>  (279) 
1

>  <s_lp_Variant>  (279) 
89:0-1

>  <s_i_glide_gridfile>  (279) 
pfpi4k_grid

>  <i_i_glide_lignum>  (279) 
40

>  <i_i_glide_rotatable_bonds>  (279) 
0

>  <r_i_docking_score>  (279) 
-2.54615

>  <r_i_glide_ligand_efficiency>  (279) 
-0.115734

>  <r_i_glide_ligand_efficiency_sa>  (279) 
-0.324291

>  <r_i_glide_ligand_efficiency_ln>  (279) 
-0.622371

>  <r_i_glide_gscore>  (279) 
-2.54615

>  <r_i_glide_lipo>  (279) 
-0.477635

>  <r_i_glide_hbond>  (279) 
0

>  <r_i_glide_metal>  (279) 
-0

>  <r_i_glide_rewards>  (279) 
-1.32669

>  <r_i_glide_evdw>  (279) 
-12.2791

>  <r_i_glide_ecoul>  (279) 
-0.852465

>  <r_i_glide_erotb>  (279) 
0

>  <r_i_glide_esite>  (279) 
0

>  <r_i_glide_emodel>  (279) 
-13.1514

>  <r_i_glide_energy>  (279) 
-13.1316

>  <r_i_glide_einternal>  (279) 
0

>  <r_i_glide_intrahb_reward>  (279) 
-0

>  <i_i_glide_confnum>  (279) 
1

>  <i_i_glide_posenum>  (279) 
20

>  <r_i_glide_eff_state_penalty>  (279) 
0

>  <ligand_id>  (279) 
89

>  <original_smiles>  (279) 
CC1CCC2(C)C(=O)CCCC3(CCC2C)OOC2(OO2)C13

>  <smiles>  (279) 
[H]C([H])([H])C1([H])C([H])([H])C([H])([H])C2(C([H])([H])[H])C(=O)C([H])([H])C([H])([H])C([H])([H])C3(OOC4(OO4)C13[H])C([H])([H])C([H])([H])C2([H])C([H])([H])[H]

$$$$
89:0:2
     RDKit          3D

 48 51  0  0  1  0  0  0  0  0999 V2000
    1.9004   -5.7101    0.2036 C   0  0  0  0  0  0  0  0  0  0  0  0
    2.6215   -4.3568    0.3278 C   0  0  2  0  0  0  0  0  0  0  0  0
    2.0919   -3.4053   -0.7283 C   0  0  0  0  0  0  0  0  0  0  0  0
    2.4814   -3.2871   -2.1880 C   0  0  0  0  0  0  0  0  0  0  0  0
    3.6646   -2.4324   -2.6381 C   0  0  2  0  0  0  0  0  0  0  0  0
    3.4019   -2.2401   -4.1494 C   0  0  0  0  0  0  0  0  0  0  0  0
    4.9958   -3.2336   -2.6223 C   0  0  0  0  0  0  0  0  0  0  0  0
    5.0262   -4.3133   -3.1283 O   0  0  0  0  0  0  0  0  0  0  0  0
    6.3073   -2.6475   -2.1139 C   0  0  0  0  0  0  0  0  0  0  0  0
    6.8505   -3.3649   -0.8616 C   0  0  0  0  0  0  0  0  0  0  0  0
    6.3835   -2.9580    0.5402 C   0  0  0  0  0  0  0  0  0  0  0  0
    4.8735   -3.0927    0.8864 C   0  0  2  0  0  0  0  0  0  0  0  0
    4.1894   -1.7114    0.7525 C   0  0  0  0  0  0  0  0  0  0  0  0
    4.3958   -0.8592   -0.5187 C   0  0  0  0  0  0  0  0  0  0  0  0
    3.6647   -1.0727   -1.8945 C   0  0  1  0  0  0  0  0  0  0  0  0
    4.2104   -0.0159   -2.8483 C   0  0  0  0  0  0  0  0  0  0  0  0
    4.8516   -3.2725    2.3104 O   0  0  0  0  0  0  0  0  0  0  0  0
    4.7875   -4.7489    2.6111 O   0  0  0  0  0  0  0  0  0  0  0  0
    4.6470   -5.3765    1.3664 C   0  0  0  0  0  0  0  0  0  0  0  0
    4.4265   -6.7841    1.3176 O   0  0  0  0  0  0  0  0  0  0  0  0
    5.7659   -6.1808    1.0075 O   0  0  0  0  0  0  0  0  0  0  0  0
    4.1614   -4.3923    0.3680 C   0  0  1  0  0  0  0  0  0  0  0  0
    2.2640   -6.2232   -0.6715 H   0  0  0  0  0  0  0  0  0  0  0  0
    0.8260   -5.6039    0.0570 H   0  0  0  0  0  0  0  0  0  0  0  0
    2.0351   -6.3428    1.0839 H   0  0  0  0  0  0  0  0  0  0  0  0
    2.3018   -3.9629    1.2865 H   0  0  0  0  0  0  0  0  0  0  0  0
    1.0614   -3.6542   -0.8601 H   0  0  0  0  0  0  0  0  0  0  0  0
    2.0558   -2.4522   -0.2486 H   0  0  0  0  0  0  0  0  0  0  0  0
    2.5484   -4.2261   -2.6346 H   0  0  0  0  0  0  0  0  0  0  0  0
    1.5884   -2.8704   -2.6847 H   0  0  0  0  0  0  0  0  0  0  0  0
    2.4992   -1.6443   -4.3143 H   0  0  0  0  0  0  0  0  0  0  0  0
    3.2297   -3.1965   -4.6533 H   0  0  0  0  0  0  0  0  0  0  0  0
    4.2232   -1.7556   -4.6796 H   0  0  0  0  0  0  0  0  0  0  0  0
    6.9924   -2.8835   -2.9340 H   0  0  0  0  0  0  0  0  0  0  0  0
    6.3296   -1.5634   -2.0647 H   0  0  0  0  0  0  0  0  0  0  0  0
    6.5723   -4.4076   -0.9053 H   0  0  0  0  0  0  0  0  0  0  0  0
    7.9402   -3.3054   -0.9055 H   0  0  0  0  0  0  0  0  0  0  0  0
    6.9266   -3.6254    1.2107 H   0  0  0  0  0  0  0  0  0  0  0  0
    6.7460   -1.9556    0.7662 H   0  0  0  0  0  0  0  0  0  0  0  0
    3.1786   -1.6809    1.1381 H   0  0  0  0  0  0  0  0  0  0  0  0
    4.6560   -1.1116    1.5284 H   0  0  0  0  0  0  0  0  0  0  0  0
    4.0538    0.1145   -0.1682 H   0  0  0  0  0  0  0  0  0  0  0  0
    5.4583   -0.6407   -0.6252 H   0  0  0  0  0  0  0  0  0  0  0  0
    2.6179   -0.8034   -1.7362 H   0  0  0  0  0  0  0  0  0  0  0  0
    5.1842   -0.3293   -3.1801 H   0  0  0  0  0  0  0  0  0  0  0  0
    4.2524    0.9174   -2.3291 H   0  0  0  0  0  0  0  0  0  0  0  0
    3.5730    0.1997   -3.7104 H   0  0  0  0  0  0  0  0  0  0  0  0
    4.4748   -4.7638   -0.5977 H   0  0  0  0  0  0  0  0  0  0  0  0
  1  2  1  0
  1 23  1  0
  1 24  1  0
  1 25  1  0
  2 22  1  0
  2  3  1  0
  2 26  1  1
  3  4  1  0
  3 27  1  0
  3 28  1  0
  4  5  1  0
  4 29  1  0
  4 30  1  0
  5 15  1  0
  5  6  1  6
  5  7  1  0
  6 31  1  0
  6 32  1  0
  6 33  1  0
  7  8  2  0
  7  9  1  0
  9 10  1  0
  9 34  1  0
  9 35  1  0
 10 11  1  0
 10 36  1  0
 10 37  1  0
 11 12  1  0
 11 38  1  0
 11 39  1  0
 12 22  1  0
 12 13  1  0
 12 17  1  1
 13 14  1  0
 13 40  1  0
 13 41  1  0
 14 15  1  0
 14 42  1  0
 14 43  1  0
 15 16  1  0
 15 44  1  1
 16 45  1  0
 16 46  1  0
 16 47  1  0
 17 18  1  0
 18 19  1  0
 19 21  1  0
 19 20  1  0
 19 22  1  0
 20 21  1  0
 22 48  1  6
M  END
>  <i_m_ct_stereo_status>  (280) 
1

>  <s_m_source_file>  (280) 
/var/tmp/pbs.5076255.sched01/tmp9n4xeji_/82rcfztp6i.sdf

>  <i_m_source_file_index>  (280) 
40

>  <i_lp_mmshare_version>  (280) 
48012

>  <i_f3d_flags>  (280) 
0

>  <s_epik_input>  (280) 
TzFPQzIoT08yKVtDQEhdKFtDQEBdMTM0KVtDQEhdKFtDSDNdKVtDSDJdW0NIMl1bQ0BAXShbQ0gzXSkoW0NASF0oW0NIM10pW0NIMl1bQ0gyXTQpQyg9TylbQ0gyXVtDSDJdW0NIMl0z

>  <s_epik_cmdline>  (280) 
J2VwaWtfcHl0aG9uJywgJy1waHQnLCAnMi4wJywgJy1waCcsICc3LjAnLCAnLXRuJywgJzgnLCAnLW1hJywgJzIwMCcsICctaW1hZScsICc8aW5maWxlLm1hZT4nLCAnLW9tYWUnLCAnPG91dGZpbGUubWFlPic=

>  <r_lp_tautomer_probability>  (280) 
1

>  <r_epik_Ionization_Penalty>  (280) 
6.60423e-14

>  <r_epik_Ionization_Penalty_Charging>  (280) 
0

>  <r_epik_Ionization_Penalty_Neutral>  (280) 
6.60423e-14

>  <r_epik_State_Penalty>  (280) 
-0

>  <r_epik_Charging_Adjusted_Penalty>  (280) 
0

>  <i_epik_Tot_Q>  (280) 
0

>  <i_epik_Tot_abs_Q>  (280) 
0

>  <s_lp_Force_Field>  (280) 
OPLS3e

>  <r_lp_Energy>  (280) 
64.3498

>  <b_lp_Chiralities_Consistent>  (280) 
1

>  <s_lp_Variant>  (280) 
89:0-1

>  <s_i_glide_gridfile>  (280) 
pfpi4k_grid

>  <i_i_glide_lignum>  (280) 
40

>  <i_i_glide_rotatable_bonds>  (280) 
0

>  <r_i_docking_score>  (280) 
-2.1775

>  <r_i_glide_ligand_efficiency>  (280) 
-0.0989775

>  <r_i_glide_ligand_efficiency_sa>  (280) 
-0.277339

>  <r_i_glide_ligand_efficiency_ln>  (280) 
-0.532261

>  <r_i_glide_gscore>  (280) 
-2.1775

>  <r_i_glide_lipo>  (280) 
-0.52956

>  <r_i_glide_hbond>  (280) 
0

>  <r_i_glide_metal>  (280) 
-0

>  <r_i_glide_rewards>  (280) 
-1.5771

>  <r_i_glide_evdw>  (280) 
-3.88986

>  <r_i_glide_ecoul>  (280) 
0.824329

>  <r_i_glide_erotb>  (280) 
0

>  <r_i_glide_esite>  (280) 
0

>  <r_i_glide_emodel>  (280) 
-2.37759

>  <r_i_glide_energy>  (280) 
-3.06553

>  <r_i_glide_einternal>  (280) 
0

>  <r_i_glide_intrahb_reward>  (280) 
-0

>  <i_i_glide_confnum>  (280) 
2

>  <i_i_glide_posenum>  (280) 
16

>  <r_i_glide_eff_state_penalty>  (280) 
0

>  <ligand_id>  (280) 
89

>  <original_smiles>  (280) 
CC1CCC2(C)C(=O)CCCC3(CCC2C)OOC2(OO2)C13

>  <smiles>  (280) 
[H]C([H])([H])C1([H])C([H])([H])C([H])([H])C2(C([H])([H])[H])C(=O)C([H])([H])C([H])([H])C([H])([H])C3(OOC4(OO4)C13[H])C([H])([H])C([H])([H])C2([H])C([H])([H])[H]

$$$$
90:0:0
     RDKit          3D

 49 53  0  0  1  0  0  0  0  0999 V2000
    4.1717   -2.7217    6.3773 C   0  0  0  0  0  0  0  0  0  0  0  0
    4.5344   -2.9310    4.8891 C   0  0  2  0  0  0  0  0  0  0  0  0
    4.7315   -1.5833    4.2056 C   0  0  0  0  0  0  0  0  0  0  0  0
    5.2170   -1.7949    2.7765 C   0  0  0  0  0  0  0  0  0  0  0  0
    4.2477   -2.6255    1.8751 C   0  0  1  0  0  0  0  0  0  0  0  0
    4.7433   -2.5640    0.3313 C   0  0  2  0  0  0  0  0  0  0  0  0
    6.3024   -2.6369    0.2311 C   0  0  0  0  0  0  0  0  0  0  0  0
    4.3684   -1.1334   -0.1810 C   0  0  0  0  0  0  0  0  0  0  0  0
    3.8235   -0.2897    0.5141 O   0  0  0  0  0  0  0  0  0  0  0  0
    4.7448   -0.7957   -1.6334 C   0  0  0  0  0  0  0  0  0  0  0  0
    4.4042   -1.9287   -2.5599 C   0  0  0  0  0  0  0  0  0  0  0  0
    4.1415   -3.1726   -2.1507 C   0  0  0  0  0  0  0  0  0  0  0  0
    4.1321   -3.6262   -0.6852 C   0  0  1  0  0  0  0  0  0  0  0  0
    4.9077   -4.8224   -0.7258 O   0  0  0  0  0  0  0  0  0  0  0  0
    2.6708   -3.9973   -0.3365 C   0  0  0  0  0  0  0  0  0  0  0  0
    2.4680   -5.2348    0.5499 C   0  0  0  0  0  0  0  0  0  0  0  0
    3.0549   -5.1531    1.9276 C   0  0  1  0  0  0  0  0  0  0  0  0
    4.4969   -5.1817    2.0722 C   0  0  1  0  0  0  0  0  0  0  0  0
    5.7601   -6.0242    1.9024 C   0  0  0  0  0  0  0  0  0  0  0  0
    4.9727   -6.0927    3.1141 O   0  0  0  0  0  0  0  0  0  0  0  0
    3.9158   -3.9680    2.5853 C   0  0  1  0  0  0  0  0  0  0  0  0
    3.4898   -3.7078    4.0557 C   0  0  1  0  0  0  0  0  0  0  0  0
    3.1208   -4.8707    4.8067 O   0  0  0  0  0  0  0  0  0  0  0  0
    3.2210   -2.2040    6.5131 H   0  0  0  0  0  0  0  0  0  0  0  0
    4.9403   -2.1293    6.8773 H   0  0  0  0  0  0  0  0  0  0  0  0
    4.1142   -3.6670    6.9198 H   0  0  0  0  0  0  0  0  0  0  0  0
    5.4694   -3.4957    4.8750 H   0  0  0  0  0  0  0  0  0  0  0  0
    3.7965   -1.0187    4.1937 H   0  0  0  0  0  0  0  0  0  0  0  0
    5.4522   -0.9806    4.7549 H   0  0  0  0  0  0  0  0  0  0  0  0
    5.4044   -0.8119    2.3509 H   0  0  0  0  0  0  0  0  0  0  0  0
    6.1849   -2.2871    2.8413 H   0  0  0  0  0  0  0  0  0  0  0  0
    3.2714   -2.1372    1.9264 H   0  0  0  0  0  0  0  0  0  0  0  0
    6.7340   -3.4859    0.7668 H   0  0  0  0  0  0  0  0  0  0  0  0
    6.7699   -1.7284    0.6198 H   0  0  0  0  0  0  0  0  0  0  0  0
    6.6219   -2.7230   -0.8107 H   0  0  0  0  0  0  0  0  0  0  0  0
    4.2105    0.0923   -1.9493 H   0  0  0  0  0  0  0  0  0  0  0  0
    5.8033   -0.5762   -1.6965 H   0  0  0  0  0  0  0  0  0  0  0  0
    4.4192   -1.6919   -3.6170 H   0  0  0  0  0  0  0  0  0  0  0  0
    3.9230   -3.9306   -2.8851 H   0  0  0  0  0  0  0  0  0  0  0  0
    4.4766   -5.4195   -1.3126 H   0  0  0  0  0  0  0  0  0  0  0  0
    2.1587   -3.1395    0.0875 H   0  0  0  0  0  0  0  0  0  0  0  0
    2.1325   -4.2308   -1.2564 H   0  0  0  0  0  0  0  0  0  0  0  0
    1.4065   -5.4336    0.6728 H   0  0  0  0  0  0  0  0  0  0  0  0
    2.8599   -6.1363    0.0719 H   0  0  0  0  0  0  0  0  0  0  0  0
    2.5169   -5.7743    2.6315 H   0  0  0  0  0  0  0  0  0  0  0  0
    5.6556   -6.8346    1.1946 H   0  0  0  0  0  0  0  0  0  0  0  0
    6.6791   -5.4609    1.9326 H   0  0  0  0  0  0  0  0  0  0  0  0
    2.5832   -3.1109    4.0166 H   0  0  0  0  0  0  0  0  0  0  0  0
    3.8597   -5.4363    4.8606 H   0  0  0  0  0  0  0  0  0  0  0  0
  1  2  1  0
  1 24  1  0
  1 25  1  0
  1 26  1  0
  2 22  1  0
  2  3  1  0
  2 27  1  1
  3  4  1  0
  3 28  1  0
  3 29  1  0
  4  5  1  0
  4 30  1  0
  4 31  1  0
  5 21  1  0
  5  6  1  0
  5 32  1  6
  6 13  1  0
  6  7  1  1
  6  8  1  0
  7 33  1  0
  7 34  1  0
  7 35  1  0
  8  9  2  0
  8 10  1  0
 10 11  1  0
 10 36  1  0
 10 37  1  0
 11 12  2  0
 11 38  1  0
 12 13  1  0
 12 39  1  0
 13 14  1  6
 13 15  1  0
 14 40  1  0
 15 16  1  0
 15 41  1  0
 15 42  1  0
 16 17  1  0
 16 43  1  0
 16 44  1  0
 17 21  1  0
 17 18  1  0
 17 45  1  1
 18 20  1  1
 18 19  1  0
 21 18  1  1
 19 20  1  0
 19 46  1  0
 19 47  1  0
 21 22  1  0
 22 23  1  0
 22 48  1  6
 23 49  1  0
M  END
>  <i_m_ct_stereo_status>  (281) 
1

>  <s_m_source_file>  (281) 
/var/tmp/pbs.5076255.sched01/tmp9n4xeji_/82rcfztp6i.sdf

>  <i_m_source_file_index>  (281) 
41

>  <i_lp_mmshare_version>  (281) 
48012

>  <i_f3d_flags>  (281) 
0

>  <s_epik_input>  (281) 
W09IXVtDQEhdMVtDQEhdKFtDSDNdKVtDSDJdW0NIMl1bQ0BIXShbQ0BAXTEyW0NAXTM0W0NIMl1PNClbQ0BAXTUoW0NIM10pW0NAQF0oW09IXSkoW0NIMl1bQ0gyXVtDQEhdMjMpW0NIXT1bQ0hdW0NIMl1DNT1P

>  <s_epik_cmdline>  (281) 
J2VwaWtfcHl0aG9uJywgJy1waHQnLCAnMi4wJywgJy1waCcsICc3LjAnLCAnLXRuJywgJzgnLCAnLW1hJywgJzIwMCcsICctaW1hZScsICc8aW5maWxlLm1hZT4nLCAnLW9tYWUnLCAnPG91dGZpbGUubWFlPic=

>  <r_lp_tautomer_probability>  (281) 
1

>  <r_epik_Ionization_Penalty>  (281) 
6.53949e-07

>  <r_epik_Ionization_Penalty_Charging>  (281) 
0

>  <r_epik_Ionization_Penalty_Neutral>  (281) 
6.53949e-07

>  <r_epik_State_Penalty>  (281) 
-0

>  <r_epik_Charging_Adjusted_Penalty>  (281) 
0

>  <i_epik_Tot_Q>  (281) 
0

>  <i_epik_Tot_abs_Q>  (281) 
0

>  <s_lp_Force_Field>  (281) 
OPLS3e

>  <r_lp_Energy>  (281) 
52.9014

>  <b_lp_Chiralities_Consistent>  (281) 
1

>  <s_lp_Variant>  (281) 
90:0-1

>  <s_i_glide_gridfile>  (281) 
pfpi4k_grid

>  <i_i_glide_lignum>  (281) 
41

>  <i_i_glide_rotatable_bonds>  (281) 
2

>  <r_i_docking_score>  (281) 
-3.74702

>  <r_i_glide_ligand_efficiency>  (281) 
-0.162914

>  <r_i_glide_ligand_efficiency_sa>  (281) 
-0.463306

>  <r_i_glide_ligand_efficiency_ln>  (281) 
-0.906064

>  <r_i_glide_gscore>  (281) 
-3.74702

>  <r_i_glide_lipo>  (281) 
-0.274711

>  <r_i_glide_hbond>  (281) 
-0.269914

>  <r_i_glide_metal>  (281) 
-0

>  <r_i_glide_rewards>  (281) 
-1.73813

>  <r_i_glide_evdw>  (281) 
-22.4903

>  <r_i_glide_ecoul>  (281) 
-2.11406

>  <r_i_glide_erotb>  (281) 
0

>  <r_i_glide_esite>  (281) 
-0.0226427

>  <r_i_glide_emodel>  (281) 
-34.9558

>  <r_i_glide_energy>  (281) 
-24.6043

>  <r_i_glide_einternal>  (281) 
0.0458173

>  <r_i_glide_intrahb_reward>  (281) 
-0.5

>  <i_i_glide_confnum>  (281) 
1

>  <i_i_glide_posenum>  (281) 
4

>  <r_i_glide_eff_state_penalty>  (281) 
0

>  <ligand_id>  (281) 
90

>  <original_smiles>  (281) 
CC1CCC2C3(C)C(=O)CC=CC3(O)CCC3C4(CO4)C32C1O

>  <smiles>  (281) 
[H]OC1([H])C([H])(C([H])([H])[H])C([H])([H])C([H])([H])C2([H])C3(C([H])([H])[H])C(=O)C([H])([H])C([H])=C([H])C3(O[H])C([H])([H])C([H])([H])C3([H])C4(OC4([H])[H])C132

$$$$
90:0:1
     RDKit          3D

 49 53  0  0  1  0  0  0  0  0999 V2000
    0.9009  -11.4900    3.6741 C   0  0  0  0  0  0  0  0  0  0  0  0
    1.6713  -10.1602    3.6299 C   0  0  2  0  0  0  0  0  0  0  0  0
    0.7639   -9.0498    3.1188 C   0  0  0  0  0  0  0  0  0  0  0  0
    1.4905   -7.7143    3.2094 C   0  0  0  0  0  0  0  0  0  0  0  0
    2.8150   -7.6445    2.3915 C   0  0  1  0  0  0  0  0  0  0  0  0
    3.3521   -6.1126    2.3560 C   0  0  2  0  0  0  0  0  0  0  0  0
    3.1311   -5.3976    3.7317 C   0  0  0  0  0  0  0  0  0  0  0  0
    2.4326   -5.3458    1.3422 C   0  0  0  0  0  0  0  0  0  0  0  0
    1.5047   -5.8520    0.7186 O   0  0  0  0  0  0  0  0  0  0  0  0
    2.7113   -3.8510    1.1427 C   0  0  0  0  0  0  0  0  0  0  0  0
    4.1862   -3.5943    0.9931 C   0  0  0  0  0  0  0  0  0  0  0  0
    5.1339   -4.4721    1.3402 C   0  0  0  0  0  0  0  0  0  0  0  0
    4.8666   -5.8610    1.9174 C   0  0  1  0  0  0  0  0  0  0  0  0
    5.7473   -5.9149    3.0370 O   0  0  0  0  0  0  0  0  0  0  0  0
    5.3497   -6.8843    0.8778 C   0  0  0  0  0  0  0  0  0  0  0  0
    6.0487   -8.1487    1.3956 C   0  0  0  0  0  0  0  0  0  0  0  0
    5.2410   -9.0412    2.2901 C   0  0  1  0  0  0  0  0  0  0  0  0
    4.8982   -8.5785    3.6228 C   0  0  1  0  0  0  0  0  0  0  0  0
    5.4357   -8.1613    4.9887 C   0  0  0  0  0  0  0  0  0  0  0  0
    5.1381   -9.5480    4.6856 O   0  0  0  0  0  0  0  0  0  0  0  0
    3.7338   -8.8357    2.8006 C   0  0  1  0  0  0  0  0  0  0  0  0
    2.9330  -10.1622    2.7468 C   0  0  1  0  0  0  0  0  0  0  0  0
    3.6796  -11.3466    3.0292 O   0  0  0  0  0  0  0  0  0  0  0  0
    0.6051  -11.8400    2.6837 H   0  0  0  0  0  0  0  0  0  0  0  0
   -0.0031  -11.3861    4.2754 H   0  0  0  0  0  0  0  0  0  0  0  0
    1.4964  -12.2705    4.1470 H   0  0  0  0  0  0  0  0  0  0  0  0
    1.9779   -9.9550    4.6576 H   0  0  0  0  0  0  0  0  0  0  0  0
    0.4687   -9.2455    2.0860 H   0  0  0  0  0  0  0  0  0  0  0  0
   -0.1543   -9.0177    3.6985 H   0  0  0  0  0  0  0  0  0  0  0  0
    0.7945   -6.9485    2.8878 H   0  0  0  0  0  0  0  0  0  0  0  0
    1.6798   -7.5311    4.2696 H   0  0  0  0  0  0  0  0  0  0  0  0
    2.5754   -7.9268    1.3638 H   0  0  0  0  0  0  0  0  0  0  0  0
    3.5353   -5.9547    4.5808 H   0  0  0  0  0  0  0  0  0  0  0  0
    2.0700   -5.2208    3.9273 H   0  0  0  0  0  0  0  0  0  0  0  0
    3.6120   -4.4123    3.7428 H   0  0  0  0  0  0  0  0  0  0  0  0
    2.2166   -3.5253    0.2350 H   0  0  0  0  0  0  0  0  0  0  0  0
    2.3103   -3.2745    1.9690 H   0  0  0  0  0  0  0  0  0  0  0  0
    4.4582   -2.6169    0.6145 H   0  0  0  0  0  0  0  0  0  0  0  0
    6.1749   -4.2036    1.2221 H   0  0  0  0  0  0  0  0  0  0  0  0
    5.7770   -6.7923    3.3385 H   0  0  0  0  0  0  0  0  0  0  0  0
    4.5406   -7.1726    0.2065 H   0  0  0  0  0  0  0  0  0  0  0  0
    6.0938   -6.4048    0.2362 H   0  0  0  0  0  0  0  0  0  0  0  0
    6.3682   -8.7790    0.5633 H   0  0  0  0  0  0  0  0  0  0  0  0
    6.9746   -7.8978    1.9233 H   0  0  0  0  0  0  0  0  0  0  0  0
    5.5755  -10.0751    2.2333 H   0  0  0  0  0  0  0  0  0  0  0  0
    6.4786   -7.8821    5.0063 H   0  0  0  0  0  0  0  0  0  0  0  0
    4.7346   -7.6302    5.6131 H   0  0  0  0  0  0  0  0  0  0  0  0
    2.6166  -10.3009    1.7132 H   0  0  0  0  0  0  0  0  0  0  0  0
    3.8638  -11.7848    2.2085 H   0  0  0  0  0  0  0  0  0  0  0  0
  1  2  1  0
  1 24  1  0
  1 25  1  0
  1 26  1  0
  2 22  1  0
  2  3  1  0
  2 27  1  1
  3  4  1  0
  3 28  1  0
  3 29  1  0
  4  5  1  0
  4 30  1  0
  4 31  1  0
  5 21  1  0
  5  6  1  0
  5 32  1  6
  6 13  1  0
  6  7  1  1
  6  8  1  0
  7 33  1  0
  7 34  1  0
  7 35  1  0
  8  9  2  0
  8 10  1  0
 10 11  1  0
 10 36  1  0
 10 37  1  0
 11 12  2  0
 11 38  1  0
 12 13  1  0
 12 39  1  0
 13 14  1  1
 13 15  1  0
 14 40  1  0
 15 16  1  0
 15 41  1  0
 15 42  1  0
 16 17  1  0
 16 43  1  0
 16 44  1  0
 17 21  1  0
 17 18  1  0
 17 45  1  1
 18 20  1  1
 18 19  1  0
 21 18  1  1
 19 20  1  0
 19 46  1  0
 19 47  1  0
 21 22  1  0
 22 23  1  0
 22 48  1  6
 23 49  1  0
M  END
>  <i_m_ct_stereo_status>  (282) 
1

>  <s_m_source_file>  (282) 
/var/tmp/pbs.5076255.sched01/tmp9n4xeji_/82rcfztp6i.sdf

>  <i_m_source_file_index>  (282) 
41

>  <i_lp_mmshare_version>  (282) 
48012

>  <i_f3d_flags>  (282) 
0

>  <s_epik_input>  (282) 
W09IXVtDQEhdMVtDQEhdKFtDSDNdKVtDSDJdW0NIMl1bQ0BIXShbQ0BAXTEyW0NAXTM0W0NIMl1PNClbQ0BAXTUoW0NIM10pW0NAQF0oW09IXSkoW0NIMl1bQ0gyXVtDQEhdMjMpW0NIXT1bQ0hdW0NIMl1DNT1P

>  <s_epik_cmdline>  (282) 
J2VwaWtfcHl0aG9uJywgJy1waHQnLCAnMi4wJywgJy1waCcsICc3LjAnLCAnLXRuJywgJzgnLCAnLW1hJywgJzIwMCcsICctaW1hZScsICc8aW5maWxlLm1hZT4nLCAnLW9tYWUnLCAnPG91dGZpbGUubWFlPic=

>  <r_lp_tautomer_probability>  (282) 
1

>  <r_epik_Ionization_Penalty>  (282) 
6.53949e-07

>  <r_epik_Ionization_Penalty_Charging>  (282) 
0

>  <r_epik_Ionization_Penalty_Neutral>  (282) 
6.53949e-07

>  <r_epik_State_Penalty>  (282) 
-0

>  <r_epik_Charging_Adjusted_Penalty>  (282) 
0

>  <i_epik_Tot_Q>  (282) 
0

>  <i_epik_Tot_abs_Q>  (282) 
0

>  <s_lp_Force_Field>  (282) 
OPLS3e

>  <r_lp_Energy>  (282) 
52.9014

>  <b_lp_Chiralities_Consistent>  (282) 
1

>  <s_lp_Variant>  (282) 
90:0-1

>  <s_i_glide_gridfile>  (282) 
pfpi4k_grid

>  <i_i_glide_lignum>  (282) 
41

>  <i_i_glide_rotatable_bonds>  (282) 
2

>  <r_i_docking_score>  (282) 
-3.57355

>  <r_i_glide_ligand_efficiency>  (282) 
-0.155372

>  <r_i_glide_ligand_efficiency_sa>  (282) 
-0.441856

>  <r_i_glide_ligand_efficiency_ln>  (282) 
-0.864116

>  <r_i_glide_gscore>  (282) 
-3.57355

>  <r_i_glide_lipo>  (282) 
-0.434112

>  <r_i_glide_hbond>  (282) 
-0.151075

>  <r_i_glide_metal>  (282) 
-0

>  <r_i_glide_rewards>  (282) 
-1.23813

>  <r_i_glide_evdw>  (282) 
-20.1983

>  <r_i_glide_ecoul>  (282) 
-4.74108

>  <r_i_glide_erotb>  (282) 
0

>  <r_i_glide_esite>  (282) 
-0.0291493

>  <r_i_glide_emodel>  (282) 
-29.3643

>  <r_i_glide_energy>  (282) 
-24.9394

>  <r_i_glide_einternal>  (282) 
1.3505

>  <r_i_glide_intrahb_reward>  (282) 
-0

>  <i_i_glide_confnum>  (282) 
1

>  <i_i_glide_posenum>  (282) 
8

>  <r_i_glide_eff_state_penalty>  (282) 
0

>  <ligand_id>  (282) 
90

>  <original_smiles>  (282) 
CC1CCC2C3(C)C(=O)CC=CC3(O)CCC3C4(CO4)C32C1O

>  <smiles>  (282) 
[H]OC1([H])C([H])(C([H])([H])[H])C([H])([H])C([H])([H])C2([H])C3(C([H])([H])[H])C(=O)C([H])([H])C([H])=C([H])C3(O[H])C([H])([H])C([H])([H])C3([H])C4(OC4([H])[H])C132

$$$$
90:0:2
     RDKit          3D

 49 53  0  0  1  0  0  0  0  0999 V2000
    1.5841   -8.5920    2.5049 C   0  0  0  0  0  0  0  0  0  0  0  0
    2.2860   -7.2143    2.3888 C   0  0  2  0  0  0  0  0  0  0  0  0
    1.5850   -6.3515    1.3469 C   0  0  0  0  0  0  0  0  0  0  0  0
    2.2355   -4.9710    1.3206 C   0  0  0  0  0  0  0  0  0  0  0  0
    3.7443   -4.9234    0.9823 C   0  0  1  0  0  0  0  0  0  0  0  0
    4.1729   -3.3806    0.7330 C   0  0  2  0  0  0  0  0  0  0  0  0
    3.4521   -2.4012    1.7265 C   0  0  0  0  0  0  0  0  0  0  0  0
    3.6226   -2.9759   -0.6764 C   0  0  0  0  0  0  0  0  0  0  0  0
    2.9618   -3.7191   -1.3917 O   0  0  0  0  0  0  0  0  0  0  0  0
    3.9125   -1.5538   -1.1629 C   0  0  0  0  0  0  0  0  0  0  0  0
    5.3354   -1.1590   -0.8767 C   0  0  0  0  0  0  0  0  0  0  0  0
    6.1365   -1.8200   -0.0219 C   0  0  0  0  0  0  0  0  0  0  0  0
    5.7282   -3.0691    0.7545 C   0  0  1  0  0  0  0  0  0  0  0  0
    6.1438   -2.7280    2.0762 O   0  0  0  0  0  0  0  0  0  0  0  0
    6.5930   -4.2391    0.2406 C   0  0  0  0  0  0  0  0  0  0  0  0
    7.1102   -5.2444    1.2839 C   0  0  0  0  0  0  0  0  0  0  0  0
    6.0746   -5.9965    2.0555 C   0  0  1  0  0  0  0  0  0  0  0  0
    5.2473   -5.2604    3.0289 C   0  0  1  0  0  0  0  0  0  0  0  0
    5.2222   -4.5131    4.3578 C   0  0  0  0  0  0  0  0  0  0  0  0
    5.1189   -5.9315    4.3155 O   0  0  0  0  0  0  0  0  0  0  0  0
    4.4847   -5.8677    1.9540 C   0  0  1  0  0  0  0  0  0  0  0  0
    3.7819   -7.2561    2.0095 C   0  0  1  0  0  0  0  0  0  0  0  0
    4.3945   -8.2157    2.8748 O   0  0  0  0  0  0  0  0  0  0  0  0
    1.6592   -9.1853    1.5934 H   0  0  0  0  0  0  0  0  0  0  0  0
    0.5253   -8.4631    2.7279 H   0  0  0  0  0  0  0  0  0  0  0  0
    2.0002   -9.1832    3.3234 H   0  0  0  0  0  0  0  0  0  0  0  0
    2.2063   -6.7446    3.3718 H   0  0  0  0  0  0  0  0  0  0  0  0
    1.6652   -6.8000    0.3578 H   0  0  0  0  0  0  0  0  0  0  0  0
    0.5225   -6.2875    1.5691 H   0  0  0  0  0  0  0  0  0  0  0  0
    1.7338   -4.4145    0.5531 H   0  0  0  0  0  0  0  0  0  0  0  0
    2.0103   -4.5013    2.2839 H   0  0  0  0  0  0  0  0  0  0  0  0
    3.8672   -5.4611    0.0425 H   0  0  0  0  0  0  0  0  0  0  0  0
    3.5398   -2.6906    2.7746 H   0  0  0  0  0  0  0  0  0  0  0  0
    2.3865   -2.3199    1.4983 H   0  0  0  0  0  0  0  0  0  0  0  0
    3.8487   -1.3844    1.6344 H   0  0  0  0  0  0  0  0  0  0  0  0
    3.7426   -1.5162   -2.2353 H   0  0  0  0  0  0  0  0  0  0  0  0
    3.2220   -0.8458   -0.7053 H   0  0  0  0  0  0  0  0  0  0  0  0
    5.6708   -0.2637   -1.3794 H   0  0  0  0  0  0  0  0  0  0  0  0
    7.1385   -1.4640    0.1538 H   0  0  0  0  0  0  0  0  0  0  0  0
    5.5981   -2.0381    2.3657 H   0  0  0  0  0  0  0  0  0  0  0  0
    6.0662   -4.7621   -0.5449 H   0  0  0  0  0  0  0  0  0  0  0  0
    7.4988   -3.8380   -0.2137 H   0  0  0  0  0  0  0  0  0  0  0  0
    7.7347   -5.9854    0.7858 H   0  0  0  0  0  0  0  0  0  0  0  0
    7.7729   -4.7496    2.0037 H   0  0  0  0  0  0  0  0  0  0  0  0
    6.4403   -6.9469    2.4087 H   0  0  0  0  0  0  0  0  0  0  0  0
    6.1541   -4.0869    4.6635 H   0  0  0  0  0  0  0  0  0  0  0  0
    4.3256   -3.9358    4.5289 H   0  0  0  0  0  0  0  0  0  0  0  0
    3.8615   -7.6817    1.0070 H   0  0  0  0  0  0  0  0  0  0  0  0
    5.2142   -8.4697    2.5037 H   0  0  0  0  0  0  0  0  0  0  0  0
  1  2  1  0
  1 24  1  0
  1 25  1  0
  1 26  1  0
  2 22  1  0
  2  3  1  0
  2 27  1  1
  3  4  1  0
  3 28  1  0
  3 29  1  0
  4  5  1  0
  4 30  1  0
  4 31  1  0
  5 21  1  0
  5  6  1  0
  5 32  1  6
  6 13  1  0
  6  7  1  1
  6  8  1  0
  7 33  1  0
  7 34  1  0
  7 35  1  0
  8  9  2  0
  8 10  1  0
 10 11  1  0
 10 36  1  0
 10 37  1  0
 11 12  2  0
 11 38  1  0
 12 13  1  0
 12 39  1  0
 13 14  1  1
 13 15  1  0
 14 40  1  0
 15 16  1  0
 15 41  1  0
 15 42  1  0
 16 17  1  0
 16 43  1  0
 16 44  1  0
 17 21  1  0
 17 18  1  0
 17 45  1  1
 18 20  1  1
 18 19  1  0
 21 18  1  1
 19 20  1  0
 19 46  1  0
 19 47  1  0
 21 22  1  0
 22 23  1  0
 22 48  1  6
 23 49  1  0
M  END
>  <i_m_ct_stereo_status>  (283) 
1

>  <s_m_source_file>  (283) 
/var/tmp/pbs.5076255.sched01/tmp9n4xeji_/82rcfztp6i.sdf

>  <i_m_source_file_index>  (283) 
41

>  <i_lp_mmshare_version>  (283) 
48012

>  <i_f3d_flags>  (283) 
0

>  <s_epik_input>  (283) 
W09IXVtDQEhdMVtDQEhdKFtDSDNdKVtDSDJdW0NIMl1bQ0BIXShbQ0BAXTEyW0NAXTM0W0NIMl1PNClbQ0BAXTUoW0NIM10pW0NAQF0oW09IXSkoW0NIMl1bQ0gyXVtDQEhdMjMpW0NIXT1bQ0hdW0NIMl1DNT1P

>  <s_epik_cmdline>  (283) 
J2VwaWtfcHl0aG9uJywgJy1waHQnLCAnMi4wJywgJy1waCcsICc3LjAnLCAnLXRuJywgJzgnLCAnLW1hJywgJzIwMCcsICctaW1hZScsICc8aW5maWxlLm1hZT4nLCAnLW9tYWUnLCAnPG91dGZpbGUubWFlPic=

>  <r_lp_tautomer_probability>  (283) 
1

>  <r_epik_Ionization_Penalty>  (283) 
6.53949e-07

>  <r_epik_Ionization_Penalty_Charging>  (283) 
0

>  <r_epik_Ionization_Penalty_Neutral>  (283) 
6.53949e-07

>  <r_epik_State_Penalty>  (283) 
-0

>  <r_epik_Charging_Adjusted_Penalty>  (283) 
0

>  <i_epik_Tot_Q>  (283) 
0

>  <i_epik_Tot_abs_Q>  (283) 
0

>  <s_lp_Force_Field>  (283) 
OPLS3e

>  <r_lp_Energy>  (283) 
52.9014

>  <b_lp_Chiralities_Consistent>  (283) 
1

>  <s_lp_Variant>  (283) 
90:0-1

>  <s_i_glide_gridfile>  (283) 
pfpi4k_grid

>  <i_i_glide_lignum>  (283) 
41

>  <i_i_glide_rotatable_bonds>  (283) 
2

>  <r_i_docking_score>  (283) 
-2.37156

>  <r_i_glide_ligand_efficiency>  (283) 
-0.103111

>  <r_i_glide_ligand_efficiency_sa>  (283) 
-0.293235

>  <r_i_glide_ligand_efficiency_ln>  (283) 
-0.573465

>  <r_i_glide_gscore>  (283) 
-2.37156

>  <r_i_glide_lipo>  (283) 
-0.39808

>  <r_i_glide_hbond>  (283) 
0

>  <r_i_glide_metal>  (283) 
-0

>  <r_i_glide_rewards>  (283) 
-1.23813

>  <r_i_glide_evdw>  (283) 
-19.4431

>  <r_i_glide_ecoul>  (283) 
1.62865

>  <r_i_glide_erotb>  (283) 
0

>  <r_i_glide_esite>  (283) 
-0.00749465

>  <r_i_glide_emodel>  (283) 
-20.2981

>  <r_i_glide_energy>  (283) 
-17.8144

>  <r_i_glide_einternal>  (283) 
0.347554

>  <r_i_glide_intrahb_reward>  (283) 
-0

>  <i_i_glide_confnum>  (283) 
1

>  <i_i_glide_posenum>  (283) 
5

>  <r_i_glide_eff_state_penalty>  (283) 
0

>  <ligand_id>  (283) 
90

>  <original_smiles>  (283) 
CC1CCC2C3(C)C(=O)CC=CC3(O)CCC3C4(CO4)C32C1O

>  <smiles>  (283) 
[H]OC1([H])C([H])(C([H])([H])[H])C([H])([H])C([H])([H])C2([H])C3(C([H])([H])[H])C(=O)C([H])([H])C([H])=C([H])C3(O[H])C([H])([H])C([H])([H])C3([H])C4(OC4([H])[H])C132

$$$$
91:0:0
     RDKit          3D

 43 44  0  0  1  0  0  0  0  0999 V2000
    4.0320   -6.8894    0.4795 C   0  0  0  0  0  0  0  0  0  0  0  0
    3.1416   -6.2409    1.3735 O   0  0  0  0  0  0  0  0  0  0  0  0
    3.2062   -4.8662    1.4712 C   0  0  0  0  0  0  0  0  0  0  0  0
    3.6151   -4.0294    0.4092 C   0  0  0  0  0  0  0  0  0  0  0  0
    3.6272   -2.6327    0.5699 C   0  0  0  0  0  0  0  0  0  0  0  0
    3.2308   -2.0482    1.7850 C   0  0  0  0  0  0  0  0  0  0  0  0
    3.2897   -0.5548    1.9501 C   0  0  0  0  0  0  0  0  0  0  0  0
    4.2389    0.0514    1.4474 O   0  0  0  0  0  0  0  0  0  0  0  0
    2.3220    0.0725    2.6666 N   0  0  0  0  0  0  0  0  0  0  0  0
    1.0069   -0.4910    3.0301 C   0  0  0  0  0  0  0  0  0  0  0  0
   -0.1215    0.4653    2.6308 C   0  0  0  0  0  0  0  0  0  0  0  0
    0.0491    1.7858    3.2229 N   0  0  0  0  0  0  0  0  0  0  0  0
   -1.0664    2.6543    2.8646 C   0  0  0  0  0  0  0  0  0  0  0  0
   -1.0863    3.9953    3.6255 C   0  0  0  0  0  0  0  0  0  0  0  0
   -1.8154    4.9392    2.8831 O   0  0  0  0  0  0  0  0  0  0  0  0
    1.3275    2.3301    2.7484 C   0  0  0  0  0  0  0  0  0  0  0  0
    2.5013    1.4437    3.1633 C   0  0  0  0  0  0  0  0  0  0  0  0
    2.8673   -2.8925    2.8590 C   0  0  0  0  0  0  0  0  0  0  0  0
    2.8143   -4.2957    2.6999 C   0  0  0  0  0  0  0  0  0  0  0  0
    2.4065   -5.1606    3.6942 O   0  0  0  0  0  0  0  0  0  0  0  0
    2.0361   -4.6281    4.9598 C   0  0  0  0  0  0  0  0  0  0  0  0
    3.8608   -7.9640    0.5350 H   0  0  0  0  0  0  0  0  0  0  0  0
    5.0692   -6.6977    0.7542 H   0  0  0  0  0  0  0  0  0  0  0  0
    3.8770   -6.5922   -0.5558 H   0  0  0  0  0  0  0  0  0  0  0  0
    3.9154   -4.4353   -0.5460 H   0  0  0  0  0  0  0  0  0  0  0  0
    3.9325   -2.0045   -0.2530 H   0  0  0  0  0  0  0  0  0  0  0  0
    0.7866   -1.4366    2.5355 H   0  0  0  0  0  0  0  0  0  0  0  0
    0.9822   -0.6646    4.1085 H   0  0  0  0  0  0  0  0  0  0  0  0
   -0.1591    0.5383    1.5416 H   0  0  0  0  0  0  0  0  0  0  0  0
   -1.0741    0.0386    2.9476 H   0  0  0  0  0  0  0  0  0  0  0  0
   -1.0295    2.8064    1.7889 H   0  0  0  0  0  0  0  0  0  0  0  0
   -2.0141    2.1434    3.0463 H   0  0  0  0  0  0  0  0  0  0  0  0
   -1.5218    3.8608    4.6200 H   0  0  0  0  0  0  0  0  0  0  0  0
   -0.0939    4.4321    3.7486 H   0  0  0  0  0  0  0  0  0  0  0  0
   -1.3445    5.0289    2.0564 H   0  0  0  0  0  0  0  0  0  0  0  0
    1.3106    2.4401    1.6610 H   0  0  0  0  0  0  0  0  0  0  0  0
    1.5143    3.3186    3.1664 H   0  0  0  0  0  0  0  0  0  0  0  0
    2.5778    1.4238    4.2509 H   0  0  0  0  0  0  0  0  0  0  0  0
    3.4142    1.9219    2.8107 H   0  0  0  0  0  0  0  0  0  0  0  0
    2.6099   -2.4472    3.8037 H   0  0  0  0  0  0  0  0  0  0  0  0
    1.7557   -5.4453    5.6231 H   0  0  0  0  0  0  0  0  0  0  0  0
    1.1778   -3.9603    4.8750 H   0  0  0  0  0  0  0  0  0  0  0  0
    2.8661   -4.0955    5.4258 H   0  0  0  0  0  0  0  0  0  0  0  0
  1  2  1  0
  1 22  1  0
  1 23  1  0
  1 24  1  0
  2  3  1  0
  3 19  2  0
  3  4  1  0
  4  5  2  0
  4 25  1  0
  5  6  1  0
  5 26  1  0
  6  7  1  0
  6 18  2  0
  7  8  2  0
  7  9  1  0
  9 17  1  0
  9 10  1  0
 10 11  1  0
 10 27  1  0
 10 28  1  0
 11 12  1  0
 11 29  1  0
 11 30  1  0
 12 13  1  0
 12 16  1  0
 13 14  1  0
 13 31  1  0
 13 32  1  0
 14 15  1  0
 14 33  1  0
 14 34  1  0
 15 35  1  0
 16 17  1  0
 16 36  1  0
 16 37  1  0
 17 38  1  0
 17 39  1  0
 18 19  1  0
 18 40  1  0
 19 20  1  0
 20 21  1  0
 21 41  1  0
 21 42  1  0
 21 43  1  0
M  END
>  <i_m_ct_stereo_status>  (284) 
1

>  <s_m_source_file>  (284) 
/var/tmp/pbs.5076255.sched01/tmparsu8qf0/123n9qi1oz7.sdf

>  <i_m_source_file_index>  (284) 
1

>  <i_lp_mmshare_version>  (284) 
48012

>  <i_f3d_flags>  (284) 
0

>  <s_epik_input>  (284) 
W0NIM11PYzFbY0hdW2NIXWMoW2NIXWMxT1tDSDNdKUMoPU8pTjJbQ0gyXVtDSDJdTihbQ0gyXVtDSDJdMilbQ0gyXVtDSDJdW09IXQ==

>  <s_epik_cmdline>  (284) 
J2VwaWtfcHl0aG9uJywgJy1waHQnLCAnMi4wJywgJy1waCcsICc3LjAnLCAnLXRuJywgJzgnLCAnLW1hJywgJzIwMCcsICctaW1hZScsICc8aW5maWxlLm1hZT4nLCAnLW9tYWUnLCAnPG91dGZpbGUubWFlPic=

>  <r_lp_tautomer_probability>  (284) 
1

>  <r_epik_Ionization_Penalty>  (284) 
0.240701

>  <r_epik_Ionization_Penalty_Charging>  (284) 
0

>  <r_epik_Ionization_Penalty_Neutral>  (284) 
0.240701

>  <r_epik_State_Penalty>  (284) 
0.231676

>  <r_epik_Charging_Adjusted_Penalty>  (284) 
0.231676

>  <i_epik_Tot_Q>  (284) 
0

>  <i_epik_Tot_abs_Q>  (284) 
0

>  <s_lp_Force_Field>  (284) 
OPLS3e

>  <r_lp_Energy>  (284) 
46.9941

>  <b_lp_Chiralities_Consistent>  (284) 
1

>  <s_lp_Variant>  (284) 
91:0-1

>  <s_i_glide_gridfile>  (284) 
pfpi4k_grid

>  <i_i_glide_lignum>  (284) 
1

>  <i_i_glide_rotatable_bonds>  (284) 
7

>  <r_i_docking_score>  (284) 
-3.16502

>  <r_i_glide_ligand_efficiency>  (284) 
-0.150715

>  <r_i_glide_ligand_efficiency_sa>  (284) 
-0.415812

>  <r_i_glide_ligand_efficiency_ln>  (284) 
-0.782545

>  <r_i_glide_gscore>  (284) 
-3.16502

>  <r_i_glide_lipo>  (284) 
-0.155534

>  <r_i_glide_hbond>  (284) 
-0.32

>  <r_i_glide_metal>  (284) 
-0

>  <r_i_glide_rewards>  (284) 
-1.40219

>  <r_i_glide_evdw>  (284) 
-18.7039

>  <r_i_glide_ecoul>  (284) 
-7.81307

>  <r_i_glide_erotb>  (284) 
0.844287

>  <r_i_glide_esite>  (284) 
-0.0244352

>  <r_i_glide_emodel>  (284) 
-30.709

>  <r_i_glide_energy>  (284) 
-26.517

>  <r_i_glide_einternal>  (284) 
3.02447

>  <r_i_glide_intrahb_reward>  (284) 
-0

>  <i_i_glide_confnum>  (284) 
1

>  <i_i_glide_posenum>  (284) 
2

>  <r_i_glide_eff_state_penalty>  (284) 
0

>  <ligand_id>  (284) 
91

>  <original_smiles>  (284) 
COc1ccc(C(=O)N2CCN(CCO)CC2)cc1OC

>  <smiles>  (284) 
[H]OC([H])([H])C([H])([H])N1C([H])([H])C([H])([H])N(C(=O)c2c([H])c([H])c(OC([H])([H])[H])c(OC([H])([H])[H])c2[H])C([H])([H])C1([H])[H]

$$$$
91:0:1
     RDKit          3D

 43 44  0  0  1  0  0  0  0  0999 V2000
   -0.2569   -7.6158    4.3113 C   0  0  0  0  0  0  0  0  0  0  0  0
    0.5622   -7.0073    3.3215 O   0  0  0  0  0  0  0  0  0  0  0  0
    1.0033   -5.7169    3.5253 C   0  0  0  0  0  0  0  0  0  0  0  0
    0.6282   -4.9397    4.6486 C   0  0  0  0  0  0  0  0  0  0  0  0
    1.0895   -3.6211    4.7797 C   0  0  0  0  0  0  0  0  0  0  0  0
    1.8862   -3.0349    3.7775 C   0  0  0  0  0  0  0  0  0  0  0  0
    2.3682   -1.6157    3.9094 C   0  0  0  0  0  0  0  0  0  0  0  0
    3.5629   -1.3785    3.7337 O   0  0  0  0  0  0  0  0  0  0  0  0
    1.4638   -0.6592    4.2338 N   0  0  0  0  0  0  0  0  0  0  0  0
   -0.0045   -0.8147    4.2224 C   0  0  0  0  0  0  0  0  0  0  0  0
   -0.6602    0.2950    3.3950 C   0  0  0  0  0  0  0  0  0  0  0  0
   -0.2987    1.6195    3.8749 N   0  0  0  0  0  0  0  0  0  0  0  0
   -0.9808    2.6580    3.1097 C   0  0  0  0  0  0  0  0  0  0  0  0
   -0.8594    4.0576    3.7362 C   0  0  0  0  0  0  0  0  0  0  0  0
   -1.4192    5.0214    2.8799 O   0  0  0  0  0  0  0  0  0  0  0  0
    1.1595    1.7510    3.8018 C   0  0  0  0  0  0  0  0  0  0  0  0
    1.8825    0.6921    4.6436 C   0  0  0  0  0  0  0  0  0  0  0  0
    2.2851   -3.8144    2.6706 C   0  0  0  0  0  0  0  0  0  0  0  0
    1.8353   -5.1509    2.5322 C   0  0  0  0  0  0  0  0  0  0  0  0
    2.1433   -5.9576    1.4525 O   0  0  0  0  0  0  0  0  0  0  0  0
    3.0035   -5.4460    0.4446 C   0  0  0  0  0  0  0  0  0  0  0  0
   -0.4740   -8.6424    4.0188 H   0  0  0  0  0  0  0  0  0  0  0  0
   -1.2080   -7.0932    4.4103 H   0  0  0  0  0  0  0  0  0  0  0  0
    0.2386   -7.6500    5.2819 H   0  0  0  0  0  0  0  0  0  0  0  0
   -0.0230   -5.3278    5.4161 H   0  0  0  0  0  0  0  0  0  0  0  0
    0.7951   -3.0505    5.6454 H   0  0  0  0  0  0  0  0  0  0  0  0
   -0.3451   -1.7457    3.7737 H   0  0  0  0  0  0  0  0  0  0  0  0
   -0.3731   -0.7933    5.2500 H   0  0  0  0  0  0  0  0  0  0  0  0
   -0.3712    0.1819    2.3482 H   0  0  0  0  0  0  0  0  0  0  0  0
   -1.7414    0.1637    3.4369 H   0  0  0  0  0  0  0  0  0  0  0  0
   -0.6101    2.6521    2.0846 H   0  0  0  0  0  0  0  0  0  0  0  0
   -2.0406    2.4150    3.0251 H   0  0  0  0  0  0  0  0  0  0  0  0
   -1.3624    4.0842    4.7061 H   0  0  0  0  0  0  0  0  0  0  0  0
    0.1752    4.3585    3.8942 H   0  0  0  0  0  0  0  0  0  0  0  0
   -0.9268    4.9603    2.0521 H   0  0  0  0  0  0  0  0  0  0  0  0
    1.4876    1.6852    2.7617 H   0  0  0  0  0  0  0  0  0  0  0  0
    1.4823    2.7206    4.1747 H   0  0  0  0  0  0  0  0  0  0  0  0
    1.6384    0.8396    5.6984 H   0  0  0  0  0  0  0  0  0  0  0  0
    2.9580    0.8657    4.5575 H   0  0  0  0  0  0  0  0  0  0  0  0
    2.9161   -3.3518    1.9243 H   0  0  0  0  0  0  0  0  0  0  0  0
    3.1739   -6.2216   -0.3010 H   0  0  0  0  0  0  0  0  0  0  0  0
    3.9778   -5.1640    0.8471 H   0  0  0  0  0  0  0  0  0  0  0  0
    2.5550   -4.5911   -0.0641 H   0  0  0  0  0  0  0  0  0  0  0  0
  1  2  1  0
  1 22  1  0
  1 23  1  0
  1 24  1  0
  2  3  1  0
  3 19  2  0
  3  4  1  0
  4  5  2  0
  4 25  1  0
  5  6  1  0
  5 26  1  0
  6  7  1  0
  6 18  2  0
  7  8  2  0
  7  9  1  0
  9 17  1  0
  9 10  1  0
 10 11  1  0
 10 27  1  0
 10 28  1  0
 11 12  1  0
 11 29  1  0
 11 30  1  0
 12 13  1  0
 12 16  1  0
 13 14  1  0
 13 31  1  0
 13 32  1  0
 14 15  1  0
 14 33  1  0
 14 34  1  0
 15 35  1  0
 16 17  1  0
 16 36  1  0
 16 37  1  0
 17 38  1  0
 17 39  1  0
 18 19  1  0
 18 40  1  0
 19 20  1  0
 20 21  1  0
 21 41  1  0
 21 42  1  0
 21 43  1  0
M  END
>  <i_m_ct_stereo_status>  (285) 
1

>  <s_m_source_file>  (285) 
/var/tmp/pbs.5076255.sched01/tmparsu8qf0/123n9qi1oz7.sdf

>  <i_m_source_file_index>  (285) 
1

>  <i_lp_mmshare_version>  (285) 
48012

>  <i_f3d_flags>  (285) 
0

>  <s_epik_input>  (285) 
W0NIM11PYzFbY0hdW2NIXWMoW2NIXWMxT1tDSDNdKUMoPU8pTjJbQ0gyXVtDSDJdTihbQ0gyXVtDSDJdMilbQ0gyXVtDSDJdW09IXQ==

>  <s_epik_cmdline>  (285) 
J2VwaWtfcHl0aG9uJywgJy1waHQnLCAnMi4wJywgJy1waCcsICc3LjAnLCAnLXRuJywgJzgnLCAnLW1hJywgJzIwMCcsICctaW1hZScsICc8aW5maWxlLm1hZT4nLCAnLW9tYWUnLCAnPG91dGZpbGUubWFlPic=

>  <r_lp_tautomer_probability>  (285) 
1

>  <r_epik_Ionization_Penalty>  (285) 
0.240701

>  <r_epik_Ionization_Penalty_Charging>  (285) 
0

>  <r_epik_Ionization_Penalty_Neutral>  (285) 
0.240701

>  <r_epik_State_Penalty>  (285) 
0.231676

>  <r_epik_Charging_Adjusted_Penalty>  (285) 
0.231676

>  <i_epik_Tot_Q>  (285) 
0

>  <i_epik_Tot_abs_Q>  (285) 
0

>  <s_lp_Force_Field>  (285) 
OPLS3e

>  <r_lp_Energy>  (285) 
46.9941

>  <b_lp_Chiralities_Consistent>  (285) 
1

>  <s_lp_Variant>  (285) 
91:0-1

>  <s_i_glide_gridfile>  (285) 
pfpi4k_grid

>  <i_i_glide_lignum>  (285) 
1

>  <i_i_glide_rotatable_bonds>  (285) 
7

>  <r_i_docking_score>  (285) 
-3.01502

>  <r_i_glide_ligand_efficiency>  (285) 
-0.143572

>  <r_i_glide_ligand_efficiency_sa>  (285) 
-0.396105

>  <r_i_glide_ligand_efficiency_ln>  (285) 
-0.745456

>  <r_i_glide_gscore>  (285) 
-3.01502

>  <r_i_glide_lipo>  (285) 
-0.0232529

>  <r_i_glide_hbond>  (285) 
-0.32

>  <r_i_glide_metal>  (285) 
-0

>  <r_i_glide_rewards>  (285) 
-1.40219

>  <r_i_glide_evdw>  (285) 
-15.9797

>  <r_i_glide_ecoul>  (285) 
-8.75627

>  <r_i_glide_erotb>  (285) 
0.844287

>  <r_i_glide_esite>  (285) 
-0.00143824

>  <r_i_glide_emodel>  (285) 
-30.3289

>  <r_i_glide_energy>  (285) 
-24.736

>  <r_i_glide_einternal>  (285) 
0.603756

>  <r_i_glide_intrahb_reward>  (285) 
-0

>  <i_i_glide_confnum>  (285) 
3

>  <i_i_glide_posenum>  (285) 
14

>  <r_i_glide_eff_state_penalty>  (285) 
0

>  <ligand_id>  (285) 
91

>  <original_smiles>  (285) 
COc1ccc(C(=O)N2CCN(CCO)CC2)cc1OC

>  <smiles>  (285) 
[H]OC([H])([H])C([H])([H])N1C([H])([H])C([H])([H])N(C(=O)c2c([H])c([H])c(OC([H])([H])[H])c(OC([H])([H])[H])c2[H])C([H])([H])C1([H])[H]

$$$$
91:0:2
     RDKit          3D

 43 44  0  0  1  0  0  0  0  0999 V2000
   -0.2779   -8.4442    2.0856 C   0  0  0  0  0  0  0  0  0  0  0  0
   -0.2556   -7.5217    3.1650 O   0  0  0  0  0  0  0  0  0  0  0  0
    0.6154   -6.4521    3.1012 C   0  0  0  0  0  0  0  0  0  0  0  0
    1.4740   -6.2031    2.0037 C   0  0  0  0  0  0  0  0  0  0  0  0
    2.3045   -5.0669    1.9937 C   0  0  0  0  0  0  0  0  0  0  0  0
    2.2871   -4.1573    3.0712 C   0  0  0  0  0  0  0  0  0  0  0  0
    3.2218   -2.9780    3.0706 C   0  0  0  0  0  0  0  0  0  0  0  0
    4.3981   -3.1548    2.7563 O   0  0  0  0  0  0  0  0  0  0  0  0
    2.7454   -1.7745    3.4666 N   0  0  0  0  0  0  0  0  0  0  0  0
    1.3262   -1.3719    3.4605 C   0  0  0  0  0  0  0  0  0  0  0  0
    1.1494   -0.0514    2.6883 C   0  0  0  0  0  0  0  0  0  0  0  0
    1.9891    1.0141    3.2242 N   0  0  0  0  0  0  0  0  0  0  0  0
    1.7662    2.2814    2.5294 C   0  0  0  0  0  0  0  0  0  0  0  0
    2.3522    3.4994    3.2620 C   0  0  0  0  0  0  0  0  0  0  0  0
    2.2119    4.6577    2.4761 O   0  0  0  0  0  0  0  0  0  0  0  0
    3.3869    0.5899    3.1402 C   0  0  0  0  0  0  0  0  0  0  0  0
    3.6503   -0.7034    3.9164 C   0  0  0  0  0  0  0  0  0  0  0  0
    1.4553   -4.4246    4.1820 C   0  0  0  0  0  0  0  0  0  0  0  0
    0.6115   -5.5625    4.2018 C   0  0  0  0  0  0  0  0  0  0  0  0
   -0.2521   -5.8591    5.2358 O   0  0  0  0  0  0  0  0  0  0  0  0
   -0.2819   -5.0064    6.3710 C   0  0  0  0  0  0  0  0  0  0  0  0
   -0.9974   -9.2359    2.2978 H   0  0  0  0  0  0  0  0  0  0  0  0
    0.6934   -8.9191    1.9392 H   0  0  0  0  0  0  0  0  0  0  0  0
   -0.5887   -7.9523    1.1638 H   0  0  0  0  0  0  0  0  0  0  0  0
    1.5164   -6.8724    1.1556 H   0  0  0  0  0  0  0  0  0  0  0  0
    2.9637   -4.8936    1.1565 H   0  0  0  0  0  0  0  0  0  0  0  0
    0.6769   -2.1103    2.9910 H   0  0  0  0  0  0  0  0  0  0  0  0
    0.9866   -1.2512    4.4905 H   0  0  0  0  0  0  0  0  0  0  0  0
    1.3721   -0.2064    1.6295 H   0  0  0  0  0  0  0  0  0  0  0  0
    0.1023    0.2474    2.7400 H   0  0  0  0  0  0  0  0  0  0  0  0
    2.1671    2.2188    1.5185 H   0  0  0  0  0  0  0  0  0  0  0  0
    0.6954    2.4476    2.3968 H   0  0  0  0  0  0  0  0  0  0  0  0
    1.8365    3.6383    4.2127 H   0  0  0  0  0  0  0  0  0  0  0  0
    3.4136    3.3908    3.4797 H   0  0  0  0  0  0  0  0  0  0  0  0
    1.4500    4.5494    1.9099 H   0  0  0  0  0  0  0  0  0  0  0  0
    3.6754    0.4632    2.0939 H   0  0  0  0  0  0  0  0  0  0  0  0
    4.0454    1.3493    3.5545 H   0  0  0  0  0  0  0  0  0  0  0  0
    3.4817   -0.5255    4.9796 H   0  0  0  0  0  0  0  0  0  0  0  0
    4.7080   -0.9562    3.8187 H   0  0  0  0  0  0  0  0  0  0  0  0
    1.4731   -3.7390    5.0156 H   0  0  0  0  0  0  0  0  0  0  0  0
   -1.0134   -5.3869    7.0851 H   0  0  0  0  0  0  0  0  0  0  0  0
   -0.5821   -3.9926    6.1025 H   0  0  0  0  0  0  0  0  0  0  0  0
    0.6863   -4.9801    6.8726 H   0  0  0  0  0  0  0  0  0  0  0  0
  1  2  1  0
  1 22  1  0
  1 23  1  0
  1 24  1  0
  2  3  1  0
  3 19  2  0
  3  4  1  0
  4  5  2  0
  4 25  1  0
  5  6  1  0
  5 26  1  0
  6  7  1  0
  6 18  2  0
  7  8  2  0
  7  9  1  0
  9 17  1  0
  9 10  1  0
 10 11  1  0
 10 27  1  0
 10 28  1  0
 11 12  1  0
 11 29  1  0
 11 30  1  0
 12 13  1  0
 12 16  1  0
 13 14  1  0
 13 31  1  0
 13 32  1  0
 14 15  1  0
 14 33  1  0
 14 34  1  0
 15 35  1  0
 16 17  1  0
 16 36  1  0
 16 37  1  0
 17 38  1  0
 17 39  1  0
 18 19  1  0
 18 40  1  0
 19 20  1  0
 20 21  1  0
 21 41  1  0
 21 42  1  0
 21 43  1  0
M  END
>  <i_m_ct_stereo_status>  (286) 
1

>  <s_m_source_file>  (286) 
/var/tmp/pbs.5076255.sched01/tmparsu8qf0/123n9qi1oz7.sdf

>  <i_m_source_file_index>  (286) 
1

>  <i_lp_mmshare_version>  (286) 
48012

>  <i_f3d_flags>  (286) 
0

>  <s_epik_input>  (286) 
W0NIM11PYzFbY0hdW2NIXWMoW2NIXWMxT1tDSDNdKUMoPU8pTjJbQ0gyXVtDSDJdTihbQ0gyXVtDSDJdMilbQ0gyXVtDSDJdW09IXQ==

>  <s_epik_cmdline>  (286) 
J2VwaWtfcHl0aG9uJywgJy1waHQnLCAnMi4wJywgJy1waCcsICc3LjAnLCAnLXRuJywgJzgnLCAnLW1hJywgJzIwMCcsICctaW1hZScsICc8aW5maWxlLm1hZT4nLCAnLW9tYWUnLCAnPG91dGZpbGUubWFlPic=

>  <r_lp_tautomer_probability>  (286) 
1

>  <r_epik_Ionization_Penalty>  (286) 
0.240701

>  <r_epik_Ionization_Penalty_Charging>  (286) 
0

>  <r_epik_Ionization_Penalty_Neutral>  (286) 
0.240701

>  <r_epik_State_Penalty>  (286) 
0.231676

>  <r_epik_Charging_Adjusted_Penalty>  (286) 
0.231676

>  <i_epik_Tot_Q>  (286) 
0

>  <i_epik_Tot_abs_Q>  (286) 
0

>  <s_lp_Force_Field>  (286) 
OPLS3e

>  <r_lp_Energy>  (286) 
46.9941

>  <b_lp_Chiralities_Consistent>  (286) 
1

>  <s_lp_Variant>  (286) 
91:0-1

>  <s_i_glide_gridfile>  (286) 
pfpi4k_grid

>  <i_i_glide_lignum>  (286) 
1

>  <i_i_glide_rotatable_bonds>  (286) 
7

>  <r_i_docking_score>  (286) 
-2.55571

>  <r_i_glide_ligand_efficiency>  (286) 
-0.1217

>  <r_i_glide_ligand_efficiency_sa>  (286) 
-0.335762

>  <r_i_glide_ligand_efficiency_ln>  (286) 
-0.631894

>  <r_i_glide_gscore>  (286) 
-2.55571

>  <r_i_glide_lipo>  (286) 
-0.0216292

>  <r_i_glide_hbond>  (286) 
-0.16

>  <r_i_glide_metal>  (286) 
-0

>  <r_i_glide_rewards>  (286) 
-1.40226

>  <r_i_glide_evdw>  (286) 
-19.215

>  <r_i_glide_ecoul>  (286) 
-5.70236

>  <r_i_glide_erotb>  (286) 
0.844287

>  <r_i_glide_esite>  (286) 
0

>  <r_i_glide_emodel>  (286) 
-29.1032

>  <r_i_glide_energy>  (286) 
-24.9173

>  <r_i_glide_einternal>  (286) 
1.29854

>  <r_i_glide_intrahb_reward>  (286) 
-0

>  <i_i_glide_confnum>  (286) 
1

>  <i_i_glide_posenum>  (286) 
15

>  <r_i_glide_eff_state_penalty>  (286) 
0

>  <ligand_id>  (286) 
91

>  <original_smiles>  (286) 
COc1ccc(C(=O)N2CCN(CCO)CC2)cc1OC

>  <smiles>  (286) 
[H]OC([H])([H])C([H])([H])N1C([H])([H])C([H])([H])N(C(=O)c2c([H])c([H])c(OC([H])([H])[H])c(OC([H])([H])[H])c2[H])C([H])([H])C1([H])[H]

$$$$
91:1:0
     RDKit          3D

 44 45  0  0  1  0  0  0  0  0999 V2000
    7.0054   -2.8720   -1.5593 C   0  0  0  0  0  0  0  0  0  0  0  0
    7.0557   -2.6204   -0.1699 O   0  0  0  0  0  0  0  0  0  0  0  0
    5.8737   -2.2921    0.4324 C   0  0  0  0  0  0  0  0  0  0  0  0
    5.8097   -1.0617    1.1153 C   0  0  0  0  0  0  0  0  0  0  0  0
    4.6933   -0.7273    1.8680 C   0  0  0  0  0  0  0  0  0  0  0  0
    3.5167   -1.5113    1.8233 C   0  0  0  0  0  0  0  0  0  0  0  0
    2.2426   -1.0903    2.5075 C   0  0  0  0  0  0  0  0  0  0  0  0
    1.6199   -1.9337    3.1636 O   0  0  0  0  0  0  0  0  0  0  0  0
    1.7200    0.1593    2.3091 N   0  0  0  0  0  0  0  0  0  0  0  0
    2.4247    1.3952    1.8502 C   0  0  0  0  0  0  0  0  0  0  0  0
    2.2012    2.5292    2.8554 C   0  0  0  0  0  0  0  0  0  0  0  0
    0.7597    2.8192    2.9676 N   0  0  0  0  0  0  0  0  0  0  0  0
    0.5447    4.0025    3.8331 C   0  0  0  0  0  0  0  0  0  0  0  0
   -0.9363    4.4669    3.9162 C   0  0  0  0  0  0  0  0  0  0  0  0
   -1.2286    5.3755    2.8999 O   0  0  0  0  0  0  0  0  0  0  0  0
    0.0336    1.5974    3.4266 C   0  0  0  0  0  0  0  0  0  0  0  0
    0.2674    0.4049    2.4867 C   0  0  0  0  0  0  0  0  0  0  0  0
    3.5759   -2.7663    1.1492 C   0  0  0  0  0  0  0  0  0  0  0  0
    4.7653   -3.1719    0.4885 C   0  0  0  0  0  0  0  0  0  0  0  0
    4.9461   -4.4311   -0.0770 O   0  0  0  0  0  0  0  0  0  0  0  0
    3.9320   -5.4034    0.0807 C   0  0  0  0  0  0  0  0  0  0  0  0
    7.9866   -3.2057   -1.8919 H   0  0  0  0  0  0  0  0  0  0  0  0
    6.7458   -1.9498   -2.0672 H   0  0  0  0  0  0  0  0  0  0  0  0
    6.2822   -3.6274   -1.8446 H   0  0  0  0  0  0  0  0  0  0  0  0
    6.6627   -0.4112    1.0974 H   0  0  0  0  0  0  0  0  0  0  0  0
    4.8192    0.1286    2.4966 H   0  0  0  0  0  0  0  0  0  0  0  0
    3.4866    1.3775    1.7191 H   0  0  0  0  0  0  0  0  0  0  0  0
    1.9718    1.6726    0.9246 H   0  0  0  0  0  0  0  0  0  0  0  0
    2.6108    2.2594    3.8242 H   0  0  0  0  0  0  0  0  0  0  0  0
    2.7561    3.3945    2.4937 H   0  0  0  0  0  0  0  0  0  0  0  0
    0.9142    3.7434    4.8266 H   0  0  0  0  0  0  0  0  0  0  0  0
    1.1808    4.8329    3.4943 H   0  0  0  0  0  0  0  0  0  0  0  0
   -1.6734    3.6596    3.8613 H   0  0  0  0  0  0  0  0  0  0  0  0
   -1.0866    4.9269    4.8992 H   0  0  0  0  0  0  0  0  0  0  0  0
   -0.8222    5.0676    2.0606 H   0  0  0  0  0  0  0  0  0  0  0  0
    0.3804    1.3439    4.4301 H   0  0  0  0  0  0  0  0  0  0  0  0
   -1.0537    1.7019    3.4610 H   0  0  0  0  0  0  0  0  0  0  0  0
   -0.1951    0.6338    1.5119 H   0  0  0  0  0  0  0  0  0  0  0  0
   -0.3046   -0.4430    2.8941 H   0  0  0  0  0  0  0  0  0  0  0  0
    2.7041   -3.4128    1.2211 H   0  0  0  0  0  0  0  0  0  0  0  0
    4.2489   -6.2745   -0.4936 H   0  0  0  0  0  0  0  0  0  0  0  0
    2.9739   -5.0619   -0.3185 H   0  0  0  0  0  0  0  0  0  0  0  0
    3.8446   -5.6865    1.1313 H   0  0  0  0  0  0  0  0  0  0  0  0
    0.4552    3.1003    2.0300 H   0  0  0  0  0  0  0  0  0  0  0  0
  1  2  1  0
  1 22  1  0
  1 23  1  0
  1 24  1  0
  2  3  1  0
  3 19  2  0
  3  4  1  0
  4  5  2  0
  4 25  1  0
  5  6  1  0
  5 26  1  0
  6  7  1  0
  6 18  2  0
  7  8  2  0
  7  9  1  0
  9 17  1  0
  9 10  1  0
 10 11  1  0
 10 27  1  0
 10 28  1  0
 11 12  1  0
 11 29  1  0
 11 30  1  0
 12 13  1  0
 12 16  1  0
 12 44  1  0
 13 14  1  0
 13 31  1  0
 13 32  1  0
 14 15  1  0
 14 33  1  0
 14 34  1  0
 15 35  1  0
 16 17  1  0
 16 36  1  0
 16 37  1  0
 17 38  1  0
 17 39  1  0
 18 19  1  0
 18 40  1  0
 19 20  1  0
 20 21  1  0
 21 41  1  0
 21 42  1  0
 21 43  1  0
M  CHG  1  12   1
M  END
>  <i_m_ct_stereo_status>  (287) 
1

>  <s_m_source_file>  (287) 
/var/tmp/pbs.5076255.sched01/tmparsu8qf0/123n9qi1oz7.sdf

>  <i_m_source_file_index>  (287) 
2

>  <i_lp_mmshare_version>  (287) 
48012

>  <i_f3d_flags>  (287) 
0

>  <s_epik_input>  (287) 
W0NIM11PYzFbY0hdW2NIXWMoW2NIXWMxT1tDSDNdKUMoPU8pTjJbQ0gyXVtDSDJdTihbQ0gyXVtDSDJdMilbQ0gyXVtDSDJdW09IXQ==

>  <s_epik_cmdline>  (287) 
J2VwaWtfcHl0aG9uJywgJy1waHQnLCAnMi4wJywgJy1waCcsICc3LjAnLCAnLXRuJywgJzgnLCAnLW1hJywgJzIwMCcsICctaW1hZScsICc8aW5maWxlLm1hZT4nLCAnLW9tYWUnLCAnPG91dGZpbGUubWFlPic=

>  <r_lp_tautomer_probability>  (287) 
1

>  <r_epik_Ionization_Penalty>  (287) 
0.649976

>  <r_epik_Ionization_Penalty_Charging>  (287) 
0.649976

>  <r_epik_Ionization_Penalty_Neutral>  (287) 
7.48944e-07

>  <r_epik_State_Penalty>  (287) 
0.668405

>  <r_epik_Charging_Adjusted_Penalty>  (287) 
1.31838

>  <i_epik_Tot_Q>  (287) 
1

>  <i_epik_Tot_abs_Q>  (287) 
1

>  <s_lp_Force_Field>  (287) 
OPLS3e

>  <r_lp_Energy>  (287) 
43.5815

>  <b_lp_Chiralities_Consistent>  (287) 
1

>  <s_lp_Variant>  (287) 
91:0-2

>  <s_i_glide_gridfile>  (287) 
pfpi4k_grid

>  <i_i_glide_lignum>  (287) 
2

>  <i_i_glide_rotatable_bonds>  (287) 
7

>  <r_i_docking_score>  (287) 
-4.25304

>  <r_i_glide_ligand_efficiency>  (287) 
-0.202526

>  <r_i_glide_ligand_efficiency_sa>  (287) 
-0.558754

>  <r_i_glide_ligand_efficiency_ln>  (287) 
-1.05156

>  <r_i_glide_gscore>  (287) 
-4.25304

>  <r_i_glide_lipo>  (287) 
-0.314576

>  <r_i_glide_hbond>  (287) 
-0.52

>  <r_i_glide_metal>  (287) 
-0

>  <r_i_glide_rewards>  (287) 
-1.39531

>  <r_i_glide_evdw>  (287) 
-19.5389

>  <r_i_glide_ecoul>  (287) 
-11.611

>  <r_i_glide_erotb>  (287) 
0.83926

>  <r_i_glide_esite>  (287) 
-0.143818

>  <r_i_glide_emodel>  (287) 
-35.599

>  <r_i_glide_energy>  (287) 
-31.1499

>  <r_i_glide_einternal>  (287) 
11.2985

>  <r_i_glide_intrahb_reward>  (287) 
-0

>  <i_i_glide_confnum>  (287) 
4

>  <i_i_glide_posenum>  (287) 
12

>  <r_i_glide_eff_state_penalty>  (287) 
0

>  <ligand_id>  (287) 
91

>  <original_smiles>  (287) 
COc1ccc(C(=O)N2CCN(CCO)CC2)cc1OC

>  <smiles>  (287) 
[H]OC([H])([H])C([H])([H])[N+]1([H])C([H])([H])C([H])([H])N(C(=O)c2c([H])c([H])c(OC([H])([H])[H])c(OC([H])([H])[H])c2[H])C([H])([H])C1([H])[H]

$$$$
91:1:1
     RDKit          3D

 44 45  0  0  1  0  0  0  0  0999 V2000
    6.9402   -3.2600   -0.5739 C   0  0  0  0  0  0  0  0  0  0  0  0
    6.7723   -3.1062    0.8259 O   0  0  0  0  0  0  0  0  0  0  0  0
    5.5556   -2.6135    1.2318 C   0  0  0  0  0  0  0  0  0  0  0  0
    5.5705   -1.3916    1.9597 C   0  0  0  0  0  0  0  0  0  0  0  0
    4.3937   -0.8904    2.5008 C   0  0  0  0  0  0  0  0  0  0  0  0
    3.1495   -1.4870    2.2238 C   0  0  0  0  0  0  0  0  0  0  0  0
    1.8413   -0.8817    2.6940 C   0  0  0  0  0  0  0  0  0  0  0  0
    1.0374   -1.6302    3.2560 O   0  0  0  0  0  0  0  0  0  0  0  0
    1.5453    0.4108    2.4188 N   0  0  0  0  0  0  0  0  0  0  0  0
    2.4749    1.4478    1.8671 C   0  0  0  0  0  0  0  0  0  0  0  0
    2.4482    2.6847    2.8046 C   0  0  0  0  0  0  0  0  0  0  0  0
    1.0855    3.2428    2.9302 N   0  0  0  0  0  0  0  0  0  0  0  0
    1.0808    4.4838    3.7187 C   0  0  0  0  0  0  0  0  0  0  0  0
   -0.2159    5.2846    3.5302 C   0  0  0  0  0  0  0  0  0  0  0  0
   -0.0524    6.5705    4.0902 O   0  0  0  0  0  0  0  0  0  0  0  0
    0.1447    2.2082    3.4327 C   0  0  0  0  0  0  0  0  0  0  0  0
    0.1516    0.9319    2.5763 C   0  0  0  0  0  0  0  0  0  0  0  0
    3.1334   -2.7293    1.5266 C   0  0  0  0  0  0  0  0  0  0  0  0
    4.3472   -3.3075    1.0487 C   0  0  0  0  0  0  0  0  0  0  0  0
    4.4189   -4.5520    0.4539 O   0  0  0  0  0  0  0  0  0  0  0  0
    3.2302   -5.2927    0.2516 C   0  0  0  0  0  0  0  0  0  0  0  0
    7.8933   -3.7557   -0.7577 H   0  0  0  0  0  0  0  0  0  0  0  0
    6.9615   -2.2773   -1.0395 H   0  0  0  0  0  0  0  0  0  0  0  0
    6.1605   -3.8507   -1.0503 H   0  0  0  0  0  0  0  0  0  0  0  0
    6.5124   -0.8912    2.0955 H   0  0  0  0  0  0  0  0  0  0  0  0
    4.4562    0.0097    3.1180 H   0  0  0  0  0  0  0  0  0  0  0  0
    3.4952    1.2038    1.7111 H   0  0  0  0  0  0  0  0  0  0  0  0
    2.0518    1.7427    0.8964 H   0  0  0  0  0  0  0  0  0  0  0  0
    2.8100    2.3995    3.7940 H   0  0  0  0  0  0  0  0  0  0  0  0
    3.1374    3.4313    2.4275 H   0  0  0  0  0  0  0  0  0  0  0  0
    1.2307    4.2481    4.7790 H   0  0  0  0  0  0  0  0  0  0  0  0
    1.9291    5.1127    3.4318 H   0  0  0  0  0  0  0  0  0  0  0  0
   -0.4808    5.3982    2.4790 H   0  0  0  0  0  0  0  0  0  0  0  0
   -1.0446    4.7739    4.0258 H   0  0  0  0  0  0  0  0  0  0  0  0
    0.2149    7.1758    3.3956 H   0  0  0  0  0  0  0  0  0  0  0  0
    0.4276    1.9454    4.4591 H   0  0  0  0  0  0  0  0  0  0  0  0
   -0.8796    2.5955    3.4791 H   0  0  0  0  0  0  0  0  0  0  0  0
   -0.2468    1.1602    1.5887 H   0  0  0  0  0  0  0  0  0  0  0  0
   -0.5500    0.2248    3.0213 H   0  0  0  0  0  0  0  0  0  0  0  0
    2.1822   -3.2247    1.4042 H   0  0  0  0  0  0  0  0  0  0  0  0
    3.4963   -6.2083   -0.2784 H   0  0  0  0  0  0  0  0  0  0  0  0
    2.5133   -4.7413   -0.3624 H   0  0  0  0  0  0  0  0  0  0  0  0
    2.7768   -5.5694    1.2066 H   0  0  0  0  0  0  0  0  0  0  0  0
    0.7816    3.5235    1.9870 H   0  0  0  0  0  0  0  0  0  0  0  0
  1  2  1  0
  1 22  1  0
  1 23  1  0
  1 24  1  0
  2  3  1  0
  3 19  2  0
  3  4  1  0
  4  5  2  0
  4 25  1  0
  5  6  1  0
  5 26  1  0
  6  7  1  0
  6 18  2  0
  7  8  2  0
  7  9  1  0
  9 17  1  0
  9 10  1  0
 10 11  1  0
 10 27  1  0
 10 28  1  0
 11 12  1  0
 11 29  1  0
 11 30  1  0
 12 13  1  0
 12 16  1  0
 12 44  1  0
 13 14  1  0
 13 31  1  0
 13 32  1  0
 14 15  1  0
 14 33  1  0
 14 34  1  0
 15 35  1  0
 16 17  1  0
 16 36  1  0
 16 37  1  0
 17 38  1  0
 17 39  1  0
 18 19  1  0
 18 40  1  0
 19 20  1  0
 20 21  1  0
 21 41  1  0
 21 42  1  0
 21 43  1  0
M  CHG  1  12   1
M  END
>  <i_m_ct_stereo_status>  (288) 
1

>  <s_m_source_file>  (288) 
/var/tmp/pbs.5076255.sched01/tmparsu8qf0/123n9qi1oz7.sdf

>  <i_m_source_file_index>  (288) 
2

>  <i_lp_mmshare_version>  (288) 
48012

>  <i_f3d_flags>  (288) 
0

>  <s_epik_input>  (288) 
W0NIM11PYzFbY0hdW2NIXWMoW2NIXWMxT1tDSDNdKUMoPU8pTjJbQ0gyXVtDSDJdTihbQ0gyXVtDSDJdMilbQ0gyXVtDSDJdW09IXQ==

>  <s_epik_cmdline>  (288) 
J2VwaWtfcHl0aG9uJywgJy1waHQnLCAnMi4wJywgJy1waCcsICc3LjAnLCAnLXRuJywgJzgnLCAnLW1hJywgJzIwMCcsICctaW1hZScsICc8aW5maWxlLm1hZT4nLCAnLW9tYWUnLCAnPG91dGZpbGUubWFlPic=

>  <r_lp_tautomer_probability>  (288) 
1

>  <r_epik_Ionization_Penalty>  (288) 
0.649976

>  <r_epik_Ionization_Penalty_Charging>  (288) 
0.649976

>  <r_epik_Ionization_Penalty_Neutral>  (288) 
7.48944e-07

>  <r_epik_State_Penalty>  (288) 
0.668405

>  <r_epik_Charging_Adjusted_Penalty>  (288) 
1.31838

>  <i_epik_Tot_Q>  (288) 
1

>  <i_epik_Tot_abs_Q>  (288) 
1

>  <s_lp_Force_Field>  (288) 
OPLS3e

>  <r_lp_Energy>  (288) 
43.5815

>  <b_lp_Chiralities_Consistent>  (288) 
1

>  <s_lp_Variant>  (288) 
91:0-2

>  <s_i_glide_gridfile>  (288) 
pfpi4k_grid

>  <i_i_glide_lignum>  (288) 
2

>  <i_i_glide_rotatable_bonds>  (288) 
7

>  <r_i_docking_score>  (288) 
-4.23728

>  <r_i_glide_ligand_efficiency>  (288) 
-0.201775

>  <r_i_glide_ligand_efficiency_sa>  (288) 
-0.556682

>  <r_i_glide_ligand_efficiency_ln>  (288) 
-1.04766

>  <r_i_glide_gscore>  (288) 
-4.23728

>  <r_i_glide_lipo>  (288) 
-0.400525

>  <r_i_glide_hbond>  (288) 
-0.373214

>  <r_i_glide_metal>  (288) 
-0

>  <r_i_glide_rewards>  (288) 
-1.39531

>  <r_i_glide_evdw>  (288) 
-16.3573

>  <r_i_glide_ecoul>  (288) 
-11.2518

>  <r_i_glide_erotb>  (288) 
0.587482

>  <r_i_glide_esite>  (288) 
-0.150071

>  <r_i_glide_emodel>  (288) 
-34.3914

>  <r_i_glide_energy>  (288) 
-27.6091

>  <r_i_glide_einternal>  (288) 
8.25988

>  <r_i_glide_intrahb_reward>  (288) 
-0

>  <i_i_glide_confnum>  (288) 
4

>  <i_i_glide_posenum>  (288) 
1

>  <r_i_glide_eff_state_penalty>  (288) 
0

>  <ligand_id>  (288) 
91

>  <original_smiles>  (288) 
COc1ccc(C(=O)N2CCN(CCO)CC2)cc1OC

>  <smiles>  (288) 
[H]OC([H])([H])C([H])([H])[N+]1([H])C([H])([H])C([H])([H])N(C(=O)c2c([H])c([H])c(OC([H])([H])[H])c(OC([H])([H])[H])c2[H])C([H])([H])C1([H])[H]

$$$$
91:1:2
     RDKit          3D

 44 45  0  0  1  0  0  0  0  0999 V2000
   -1.2898   -7.9622    3.7306 C   0  0  0  0  0  0  0  0  0  0  0  0
   -0.6931   -6.6943    3.7369 O   0  0  0  0  0  0  0  0  0  0  0  0
    0.4874   -6.5219    3.0452 C   0  0  0  0  0  0  0  0  0  0  0  0
    1.0659   -7.5028    2.1841 C   0  0  0  0  0  0  0  0  0  0  0  0
    2.2890   -7.2242    1.5245 C   0  0  0  0  0  0  0  0  0  0  0  0
    2.9547   -5.9747    1.7036 C   0  0  0  0  0  0  0  0  0  0  0  0
    4.2567   -5.7136    0.9642 C   0  0  0  0  0  0  0  0  0  0  0  0
    5.0387   -6.6412    0.7648 O   0  0  0  0  0  0  0  0  0  0  0  0
    4.4273   -4.5264    0.3039 N   0  0  0  0  0  0  0  0  0  0  0  0
    4.3366   -3.1755    0.8731 C   0  0  0  0  0  0  0  0  0  0  0  0
    3.3550   -2.3670    0.0023 C   0  0  0  0  0  0  0  0  0  0  0  0
    3.8873   -2.2859   -1.3811 N   0  0  0  0  0  0  0  0  0  0  0  0
    3.0654   -1.4191   -2.2486 C   0  0  0  0  0  0  0  0  0  0  0  0
    3.8844   -0.7125   -3.3425 C   0  0  0  0  0  0  0  0  0  0  0  0
    3.0498    0.1492   -4.0908 O   0  0  0  0  0  0  0  0  0  0  0  0
    4.1109   -3.6192   -1.9638 C   0  0  0  0  0  0  0  0  0  0  0  0
    4.9880   -4.5191   -1.0682 C   0  0  0  0  0  0  0  0  0  0  0  0
    2.3745   -5.0624    2.6103 C   0  0  0  0  0  0  0  0  0  0  0  0
    1.1489   -5.2939    3.2472 C   0  0  0  0  0  0  0  0  0  0  0  0
    0.5851   -4.3653    4.1148 O   0  0  0  0  0  0  0  0  0  0  0  0
    1.1710   -3.0519    4.1773 C   0  0  0  0  0  0  0  0  0  0  0  0
   -2.1943   -7.9084    4.3394 H   0  0  0  0  0  0  0  0  0  0  0  0
   -0.6170   -8.7077    4.1645 H   0  0  0  0  0  0  0  0  0  0  0  0
   -1.5713   -8.2446    2.7132 H   0  0  0  0  0  0  0  0  0  0  0  0
    0.6159   -8.4788    2.0374 H   0  0  0  0  0  0  0  0  0  0  0  0
    2.7336   -7.9954    0.9088 H   0  0  0  0  0  0  0  0  0  0  0  0
    4.0345   -3.0532    1.9039 H   0  0  0  0  0  0  0  0  0  0  0  0
    5.3455   -2.7203    0.8416 H   0  0  0  0  0  0  0  0  0  0  0  0
    2.3687   -2.8311   -0.0289 H   0  0  0  0  0  0  0  0  0  0  0  0
    3.2261   -1.3833    0.4520 H   0  0  0  0  0  0  0  0  0  0  0  0
    2.1853   -1.9304   -2.6484 H   0  0  0  0  0  0  0  0  0  0  0  0
    2.6913   -0.6528   -1.6048 H   0  0  0  0  0  0  0  0  0  0  0  0
    4.6778   -0.1255   -2.8824 H   0  0  0  0  0  0  0  0  0  0  0  0
    4.3151   -1.4564   -4.0015 H   0  0  0  0  0  0  0  0  0  0  0  0
    2.6755    0.8186   -3.5244 H   0  0  0  0  0  0  0  0  0  0  0  0
    3.1200   -4.0575   -2.0492 H   0  0  0  0  0  0  0  0  0  0  0  0
    4.5257   -3.5489   -2.9886 H   0  0  0  0  0  0  0  0  0  0  0  0
    6.0082   -4.1373   -1.0392 H   0  0  0  0  0  0  0  0  0  0  0  0
    5.0115   -5.5071   -1.5372 H   0  0  0  0  0  0  0  0  0  0  0  0
    2.8930   -4.1753    2.9271 H   0  0  0  0  0  0  0  0  0  0  0  0
    0.5841   -2.4339    4.8500 H   0  0  0  0  0  0  0  0  0  0  0  0
    1.2001   -2.5374    3.2142 H   0  0  0  0  0  0  0  0  0  0  0  0
    2.1781   -3.0705    4.5894 H   0  0  0  0  0  0  0  0  0  0  0  0
    4.7732   -1.8313   -1.2722 H   0  0  0  0  0  0  0  0  0  0  0  0
  1  2  1  0
  1 22  1  0
  1 23  1  0
  1 24  1  0
  2  3  1  0
  3 19  2  0
  3  4  1  0
  4  5  2  0
  4 25  1  0
  5  6  1  0
  5 26  1  0
  6  7  1  0
  6 18  2  0
  7  8  2  0
  7  9  1  0
  9 17  1  0
  9 10  1  0
 10 11  1  0
 10 27  1  0
 10 28  1  0
 11 12  1  0
 11 29  1  0
 11 30  1  0
 12 13  1  0
 12 16  1  0
 12 44  1  0
 13 14  1  0
 13 31  1  0
 13 32  1  0
 14 15  1  0
 14 33  1  0
 14 34  1  0
 15 35  1  0
 16 17  1  0
 16 36  1  0
 16 37  1  0
 17 38  1  0
 17 39  1  0
 18 19  1  0
 18 40  1  0
 19 20  1  0
 20 21  1  0
 21 41  1  0
 21 42  1  0
 21 43  1  0
M  CHG  1  12   1
M  END
>  <i_m_ct_stereo_status>  (289) 
1

>  <s_m_source_file>  (289) 
/var/tmp/pbs.5076255.sched01/tmparsu8qf0/123n9qi1oz7.sdf

>  <i_m_source_file_index>  (289) 
2

>  <i_lp_mmshare_version>  (289) 
48012

>  <i_f3d_flags>  (289) 
0

>  <s_epik_input>  (289) 
W0NIM11PYzFbY0hdW2NIXWMoW2NIXWMxT1tDSDNdKUMoPU8pTjJbQ0gyXVtDSDJdTihbQ0gyXVtDSDJdMilbQ0gyXVtDSDJdW09IXQ==

>  <s_epik_cmdline>  (289) 
J2VwaWtfcHl0aG9uJywgJy1waHQnLCAnMi4wJywgJy1waCcsICc3LjAnLCAnLXRuJywgJzgnLCAnLW1hJywgJzIwMCcsICctaW1hZScsICc8aW5maWxlLm1hZT4nLCAnLW9tYWUnLCAnPG91dGZpbGUubWFlPic=

>  <r_lp_tautomer_probability>  (289) 
1

>  <r_epik_Ionization_Penalty>  (289) 
0.649976

>  <r_epik_Ionization_Penalty_Charging>  (289) 
0.649976

>  <r_epik_Ionization_Penalty_Neutral>  (289) 
7.48944e-07

>  <r_epik_State_Penalty>  (289) 
0.668405

>  <r_epik_Charging_Adjusted_Penalty>  (289) 
1.31838

>  <i_epik_Tot_Q>  (289) 
1

>  <i_epik_Tot_abs_Q>  (289) 
1

>  <s_lp_Force_Field>  (289) 
OPLS3e

>  <r_lp_Energy>  (289) 
43.5815

>  <b_lp_Chiralities_Consistent>  (289) 
1

>  <s_lp_Variant>  (289) 
91:0-2

>  <s_i_glide_gridfile>  (289) 
pfpi4k_grid

>  <i_i_glide_lignum>  (289) 
2

>  <i_i_glide_rotatable_bonds>  (289) 
7

>  <r_i_docking_score>  (289) 
-3.79728

>  <r_i_glide_ligand_efficiency>  (289) 
-0.180823

>  <r_i_glide_ligand_efficiency_sa>  (289) 
-0.498877

>  <r_i_glide_ligand_efficiency_ln>  (289) 
-0.93887

>  <r_i_glide_gscore>  (289) 
-3.79728

>  <r_i_glide_lipo>  (289) 
-0.23616

>  <r_i_glide_hbond>  (289) 
-0.405707

>  <r_i_glide_metal>  (289) 
-0

>  <r_i_glide_rewards>  (289) 
-1.52292

>  <r_i_glide_evdw>  (289) 
-21.1507

>  <r_i_glide_ecoul>  (289) 
-9.18327

>  <r_i_glide_erotb>  (289) 
0.83926

>  <r_i_glide_esite>  (289) 
-0.0367253

>  <r_i_glide_emodel>  (289) 
-35.4439

>  <r_i_glide_energy>  (289) 
-30.334

>  <r_i_glide_einternal>  (289) 
10.1829

>  <r_i_glide_intrahb_reward>  (289) 
-0

>  <i_i_glide_confnum>  (289) 
6

>  <i_i_glide_posenum>  (289) 
5

>  <r_i_glide_eff_state_penalty>  (289) 
0

>  <ligand_id>  (289) 
91

>  <original_smiles>  (289) 
COc1ccc(C(=O)N2CCN(CCO)CC2)cc1OC

>  <smiles>  (289) 
[H]OC([H])([H])C([H])([H])[N+]1([H])C([H])([H])C([H])([H])N(C(=O)c2c([H])c([H])c(OC([H])([H])[H])c(OC([H])([H])[H])c2[H])C([H])([H])C1([H])[H]

$$$$
92:0:0
     RDKit          3D

 41 45  0  0  1  0  0  0  0  0999 V2000
    2.9810   -3.4119   -1.6068 C   0  0  0  0  0  0  0  0  0  0  0  0
    4.0430   -2.4584   -1.0031 C   0  0  0  0  0  0  0  0  0  0  0  0
    4.1376   -1.2840   -2.0084 C   0  0  0  0  0  0  0  0  0  0  0  0
    3.6635   -1.9902    0.4450 C   0  0  2  0  0  0  0  0  0  0  0  0
    4.5783   -0.8031    0.8623 C   0  0  0  0  0  0  0  0  0  0  0  0
    6.0823   -1.1729    0.7186 C   0  0  0  0  0  0  0  0  0  0  0  0
    6.2705   -2.6393    0.3436 C   0  0  2  0  0  0  0  0  0  0  0  0
    5.4167   -3.1802   -0.8882 C   0  0  1  0  0  0  0  0  0  0  0  0
    5.6751   -4.5615   -0.1922 C   0  0  2  0  0  0  0  0  0  0  0  0
    4.8259   -5.7382    0.2756 C   0  0  0  0  0  0  0  0  0  0  0  0
    4.7668   -5.7843    1.6293 C   0  0  0  0  0  0  0  0  0  0  0  0
    5.2830   -4.5087    2.2907 C   0  0  2  0  0  0  0  0  0  0  0  0
    4.2332   -3.4952    2.8218 C   0  0  0  0  0  0  0  0  0  0  0  0
    3.0914   -4.1054    3.6202 C   0  0  0  0  0  0  0  0  0  0  0  0
    4.8086   -2.3828    3.7039 C   0  0  0  0  0  0  0  0  0  0  0  0
    3.9433   -3.2111    1.3127 C   0  0  2  0  0  0  0  0  0  0  0  0
    5.3859   -3.7026    1.0173 C   0  0  1  0  0  0  0  0  0  0  0  0
    1.9938   -2.9455   -1.6156 H   0  0  0  0  0  0  0  0  0  0  0  0
    2.8859   -4.3434   -1.0568 H   0  0  0  0  0  0  0  0  0  0  0  0
    3.2177   -3.6796   -2.6347 H   0  0  0  0  0  0  0  0  0  0  0  0
    4.9727   -0.6171   -1.8022 H   0  0  0  0  0  0  0  0  0  0  0  0
    3.2181   -0.6969   -1.9792 H   0  0  0  0  0  0  0  0  0  0  0  0
    4.2688   -1.6293   -3.0305 H   0  0  0  0  0  0  0  0  0  0  0  0
    2.6148   -1.6814    0.5001 H   0  0  0  0  0  0  0  0  0  0  0  0
    4.3524    0.0884    0.2733 H   0  0  0  0  0  0  0  0  0  0  0  0
    4.3504   -0.5034    1.8837 H   0  0  0  0  0  0  0  0  0  0  0  0
    6.5178   -0.5395   -0.0485 H   0  0  0  0  0  0  0  0  0  0  0  0
    6.6229   -0.9131    1.6276 H   0  0  0  0  0  0  0  0  0  0  0  0
    7.3281   -2.9447    0.3372 H   0  0  0  0  0  0  0  0  0  0  0  0
    6.0218   -3.1299   -1.8107 H   0  0  0  0  0  0  0  0  0  0  0  0
    6.7054   -4.9034   -0.2481 H   0  0  0  0  0  0  0  0  0  0  0  0
    4.4418   -6.5170   -0.3786 H   0  0  0  0  0  0  0  0  0  0  0  0
    4.3029   -6.5846    2.1901 H   0  0  0  0  0  0  0  0  0  0  0  0
    6.2433   -4.5964    2.8435 H   0  0  0  0  0  0  0  0  0  0  0  0
    2.3168   -3.3816    3.8566 H   0  0  0  0  0  0  0  0  0  0  0  0
    3.4450   -4.5449    4.5533 H   0  0  0  0  0  0  0  0  0  0  0  0
    2.6048   -4.9187    3.0676 H   0  0  0  0  0  0  0  0  0  0  0  0
    4.1081   -1.5594    3.8323 H   0  0  0  0  0  0  0  0  0  0  0  0
    5.7381   -1.9805    3.2910 H   0  0  0  0  0  0  0  0  0  0  0  0
    5.0665   -2.7524    4.6955 H   0  0  0  0  0  0  0  0  0  0  0  0
    3.1595   -3.9475    1.0520 H   0  0  0  0  0  0  0  0  0  0  0  0
  1  2  1  0
  1 18  1  0
  1 19  1  0
  1 20  1  0
  2  8  1  0
  2  3  1  0
  2  4  1  0
  3 21  1  0
  3 22  1  0
  3 23  1  0
  4 16  1  0
  4  5  1  0
  4 24  1  6
  5  6  1  0
  5 25  1  0
  5 26  1  0
  6  7  1  0
  6 27  1  0
  6 28  1  0
  7 17  1  0
  7  8  1  0
  7 29  1  6
  8  9  1  0
  8 30  1  6
  9 17  1  0
  9 10  1  0
  9 31  1  1
 10 11  2  0
 10 32  1  0
 11 12  1  0
 11 33  1  0
 17 12  1  1
 12 13  1  0
 12 34  1  1
 13 14  1  0
 13 15  1  0
 13 16  1  0
 14 35  1  0
 14 36  1  0
 14 37  1  0
 15 38  1  0
 15 39  1  0
 15 40  1  0
 16 17  1  0
 16 41  1  6
M  END
>  <i_m_ct_stereo_status>  (290) 
1

>  <s_m_source_file>  (290) 
/var/tmp/pbs.5076255.sched01/tmparsu8qf0/123n9qi1oz7.sdf

>  <i_m_source_file_index>  (290) 
3

>  <i_lp_mmshare_version>  (290) 
48012

>  <i_f3d_flags>  (290) 
0

>  <s_epik_input>  (290) 
W0NIM11DMShbQ0gzXSlbQ0BIXShbQ0gyXVtDSDJdMilbQ0BASF0zQyhbQ0gzXSkoW0NIM10pW0NASF00W0NIXT1bQ0hdW0NASF01W0NAQEhdMVtDQEBIXTJbQ0BdMzQ1

>  <s_epik_cmdline>  (290) 
J2VwaWtfcHl0aG9uJywgJy1waHQnLCAnMi4wJywgJy1waCcsICc3LjAnLCAnLXRuJywgJzgnLCAnLW1hJywgJzIwMCcsICctaW1hZScsICc8aW5maWxlLm1hZT4nLCAnLW9tYWUnLCAnPG91dGZpbGUubWFlPic=

>  <r_lp_tautomer_probability>  (290) 
1

>  <r_epik_Ionization_Penalty>  (290) 
0

>  <r_epik_Ionization_Penalty_Charging>  (290) 
0

>  <r_epik_Ionization_Penalty_Neutral>  (290) 
0

>  <r_epik_State_Penalty>  (290) 
-0

>  <r_epik_Charging_Adjusted_Penalty>  (290) 
0

>  <i_epik_Tot_Q>  (290) 
0

>  <i_epik_Tot_abs_Q>  (290) 
0

>  <s_lp_Force_Field>  (290) 
OPLS3e

>  <r_lp_Energy>  (290) 
129.888

>  <b_lp_Chiralities_Consistent>  (290) 
1

>  <s_lp_Variant>  (290) 
92:0-1

>  <s_i_glide_gridfile>  (290) 
pfpi4k_grid

>  <i_i_glide_lignum>  (290) 
3

>  <i_i_glide_rotatable_bonds>  (290) 
0

>  <r_i_docking_score>  (290) 
-3.43053

>  <r_i_glide_ligand_efficiency>  (290) 
-0.201796

>  <r_i_glide_ligand_efficiency_sa>  (290) 
-0.518874

>  <r_i_glide_ligand_efficiency_ln>  (290) 
-0.894949

>  <r_i_glide_gscore>  (290) 
-3.43053

>  <r_i_glide_lipo>  (290) 
-0.772989

>  <r_i_glide_hbond>  (290) 
0

>  <r_i_glide_metal>  (290) 
-0

>  <r_i_glide_rewards>  (290) 
-1.85201

>  <r_i_glide_evdw>  (290) 
-14.5198

>  <r_i_glide_ecoul>  (290) 
-0.530321

>  <r_i_glide_erotb>  (290) 
0

>  <r_i_glide_esite>  (290) 
0

>  <r_i_glide_emodel>  (290) 
-18.2171

>  <r_i_glide_energy>  (290) 
-15.0501

>  <r_i_glide_einternal>  (290) 
0

>  <r_i_glide_intrahb_reward>  (290) 
-0

>  <i_i_glide_confnum>  (290) 
1

>  <i_i_glide_posenum>  (290) 
1

>  <r_i_glide_eff_state_penalty>  (290) 
0

>  <ligand_id>  (290) 
92

>  <original_smiles>  (290) 
CC1(C)C2CCC3C1C1C=CC4C(C)(C)C2C134

>  <smiles>  (290) 
[H]C1=C([H])C2([H])C(C([H])([H])[H])(C([H])([H])[H])C3([H])C4([H])C([H])([H])C([H])([H])C5([H])C([H])(C1([H])C253)C4(C([H])([H])[H])C([H])([H])[H]

$$$$
92:0:1
     RDKit          3D

 41 45  0  0  1  0  0  0  0  0999 V2000
    2.2780   -3.9994    2.5023 C   0  0  0  0  0  0  0  0  0  0  0  0
    3.5992   -4.6684    2.0654 C   0  0  0  0  0  0  0  0  0  0  0  0
    3.5949   -6.0688    2.7265 C   0  0  0  0  0  0  0  0  0  0  0  0
    3.7309   -4.7601    0.4892 C   0  0  2  0  0  0  0  0  0  0  0  0
    4.9039   -5.7054    0.1208 C   0  0  0  0  0  0  0  0  0  0  0  0
    6.2233   -5.2776    0.8163 C   0  0  0  0  0  0  0  0  0  0  0  0
    6.0698   -3.9442    1.5582 C   0  0  2  0  0  0  0  0  0  0  0  0
    4.8412   -3.8377    2.5634 C   0  0  1  0  0  0  0  0  0  0  0  0
    5.0449   -2.2953    2.3182 C   0  0  2  0  0  0  0  0  0  0  0  0
    4.1917   -1.1080    1.8979 C   0  0  0  0  0  0  0  0  0  0  0  0
    4.5263   -0.6950    0.6538 C   0  0  0  0  0  0  0  0  0  0  0  0
    5.4189   -1.7094   -0.0912 C   0  0  2  0  0  0  0  0  0  0  0  0
    4.7180   -2.6226   -1.1548 C   0  0  0  0  0  0  0  0  0  0  0  0
    3.7606   -1.8948   -2.1017 C   0  0  0  0  0  0  0  0  0  0  0  0
    5.6892   -3.4035   -2.0430 C   0  0  0  0  0  0  0  0  0  0  0  0
    4.0382   -3.3136    0.0737 C   0  0  2  0  0  0  0  0  0  0  0  0
    5.2437   -2.8184    0.9145 C   0  0  1  0  0  0  0  0  0  0  0  0
    1.4214   -4.5337    2.0923 H   0  0  0  0  0  0  0  0  0  0  0  0
    2.1942   -2.9607    2.1921 H   0  0  0  0  0  0  0  0  0  0  0  0
    2.1724   -4.0049    3.5886 H   0  0  0  0  0  0  0  0  0  0  0  0
    4.5565   -6.5718    2.6576 H   0  0  0  0  0  0  0  0  0  0  0  0
    2.8468   -6.7178    2.2681 H   0  0  0  0  0  0  0  0  0  0  0  0
    3.3673   -6.0075    3.7909 H   0  0  0  0  0  0  0  0  0  0  0  0
    2.8052   -5.1158    0.0343 H   0  0  0  0  0  0  0  0  0  0  0  0
    4.6634   -6.7389    0.3772 H   0  0  0  0  0  0  0  0  0  0  0  0
    5.0214   -5.7306   -0.9611 H   0  0  0  0  0  0  0  0  0  0  0  0
    6.5160   -6.0512    1.5262 H   0  0  0  0  0  0  0  0  0  0  0  0
    7.0403   -5.2382    0.0982 H   0  0  0  0  0  0  0  0  0  0  0  0
    7.0167   -3.5815    1.9653 H   0  0  0  0  0  0  0  0  0  0  0  0
    5.1415   -4.0975    3.5790 H   0  0  0  0  0  0  0  0  0  0  0  0
    5.9480   -1.9075    2.7945 H   0  0  0  0  0  0  0  0  0  0  0  0
    3.5233   -0.5749    2.5618 H   0  0  0  0  0  0  0  0  0  0  0  0
    4.1272    0.1765    0.1661 H   0  0  0  0  0  0  0  0  0  0  0  0
    6.4543   -1.4052   -0.2688 H   0  0  0  0  0  0  0  0  0  0  0  0
    3.2121   -2.5899   -2.7336 H   0  0  0  0  0  0  0  0  0  0  0  0
    4.2930   -1.1936   -2.7454 H   0  0  0  0  0  0  0  0  0  0  0  0
    3.0163   -1.3112   -1.5566 H   0  0  0  0  0  0  0  0  0  0  0  0
    5.1867   -4.2108   -2.5750 H   0  0  0  0  0  0  0  0  0  0  0  0
    6.5075   -3.8255   -1.4644 H   0  0  0  0  0  0  0  0  0  0  0  0
    6.1546   -2.7594   -2.7890 H   0  0  0  0  0  0  0  0  0  0  0  0
    3.1184   -2.7460    0.2397 H   0  0  0  0  0  0  0  0  0  0  0  0
  1  2  1  0
  1 18  1  0
  1 19  1  0
  1 20  1  0
  2  8  1  0
  2  3  1  0
  2  4  1  0
  3 21  1  0
  3 22  1  0
  3 23  1  0
  4 16  1  0
  4  5  1  0
  4 24  1  6
  5  6  1  0
  5 25  1  0
  5 26  1  0
  6  7  1  0
  6 27  1  0
  6 28  1  0
  7 17  1  0
  7  8  1  0
  7 29  1  1
  8  9  1  0
  8 30  1  1
  9 17  1  0
  9 10  1  0
  9 31  1  1
 10 11  2  0
 10 32  1  0
 11 12  1  0
 11 33  1  0
 17 12  1  6
 12 13  1  0
 12 34  1  6
 13 14  1  0
 13 15  1  0
 13 16  1  0
 14 35  1  0
 14 36  1  0
 14 37  1  0
 15 38  1  0
 15 39  1  0
 15 40  1  0
 16 17  1  0
 16 41  1  1
M  END
>  <i_m_ct_stereo_status>  (291) 
1

>  <s_m_source_file>  (291) 
/var/tmp/pbs.5076255.sched01/tmparsu8qf0/123n9qi1oz7.sdf

>  <i_m_source_file_index>  (291) 
3

>  <i_lp_mmshare_version>  (291) 
48012

>  <i_f3d_flags>  (291) 
0

>  <s_epik_input>  (291) 
W0NIM11DMShbQ0gzXSlbQ0BIXShbQ0gyXVtDSDJdMilbQ0BASF0zQyhbQ0gzXSkoW0NIM10pW0NASF00W0NIXT1bQ0hdW0NASF01W0NAQEhdMVtDQEBIXTJbQ0BdMzQ1

>  <s_epik_cmdline>  (291) 
J2VwaWtfcHl0aG9uJywgJy1waHQnLCAnMi4wJywgJy1waCcsICc3LjAnLCAnLXRuJywgJzgnLCAnLW1hJywgJzIwMCcsICctaW1hZScsICc8aW5maWxlLm1hZT4nLCAnLW9tYWUnLCAnPG91dGZpbGUubWFlPic=

>  <r_lp_tautomer_probability>  (291) 
1

>  <r_epik_Ionization_Penalty>  (291) 
0

>  <r_epik_Ionization_Penalty_Charging>  (291) 
0

>  <r_epik_Ionization_Penalty_Neutral>  (291) 
0

>  <r_epik_State_Penalty>  (291) 
-0

>  <r_epik_Charging_Adjusted_Penalty>  (291) 
0

>  <i_epik_Tot_Q>  (291) 
0

>  <i_epik_Tot_abs_Q>  (291) 
0

>  <s_lp_Force_Field>  (291) 
OPLS3e

>  <r_lp_Energy>  (291) 
129.888

>  <b_lp_Chiralities_Consistent>  (291) 
1

>  <s_lp_Variant>  (291) 
92:0-1

>  <s_i_glide_gridfile>  (291) 
pfpi4k_grid

>  <i_i_glide_lignum>  (291) 
3

>  <i_i_glide_rotatable_bonds>  (291) 
0

>  <r_i_docking_score>  (291) 
-3.32027

>  <r_i_glide_ligand_efficiency>  (291) 
-0.19531

>  <r_i_glide_ligand_efficiency_sa>  (291) 
-0.502196

>  <r_i_glide_ligand_efficiency_ln>  (291) 
-0.866183

>  <r_i_glide_gscore>  (291) 
-3.32027

>  <r_i_glide_lipo>  (291) 
-0.711621

>  <r_i_glide_hbond>  (291) 
0

>  <r_i_glide_metal>  (291) 
-0

>  <r_i_glide_rewards>  (291) 
-1.85201

>  <r_i_glide_evdw>  (291) 
-14.8684

>  <r_i_glide_ecoul>  (291) 
-0.0881164

>  <r_i_glide_erotb>  (291) 
0

>  <r_i_glide_esite>  (291) 
0

>  <r_i_glide_emodel>  (291) 
-18.0298

>  <r_i_glide_energy>  (291) 
-14.9566

>  <r_i_glide_einternal>  (291) 
0

>  <r_i_glide_intrahb_reward>  (291) 
-0

>  <i_i_glide_confnum>  (291) 
1

>  <i_i_glide_posenum>  (291) 
2

>  <r_i_glide_eff_state_penalty>  (291) 
0

>  <ligand_id>  (291) 
92

>  <original_smiles>  (291) 
CC1(C)C2CCC3C1C1C=CC4C(C)(C)C2C134

>  <smiles>  (291) 
[H]C1=C([H])C2([H])C(C([H])([H])[H])(C([H])([H])[H])C3([H])C4([H])C([H])([H])C([H])([H])C5([H])C([H])(C1([H])C253)C4(C([H])([H])[H])C([H])([H])[H]

$$$$
93:0:0
     RDKit          3D

 42 46  0  0  1  0  0  0  0  0999 V2000
    3.3071    0.1080   -4.8023 C   0  0  0  0  0  0  0  0  0  0  0  0
    3.9562    0.0576   -3.5469 O   0  0  0  0  0  0  0  0  0  0  0  0
    4.2106   -1.1879   -3.0198 C   0  0  0  0  0  0  0  0  0  0  0  0
    4.0266   -2.4084   -3.7179 C   0  0  0  0  0  0  0  0  0  0  0  0
    4.2559   -3.6610   -3.1045 C   0  0  0  0  0  0  0  0  0  0  0  0
    4.6982   -3.6988   -1.7527 C   0  0  0  0  0  0  0  0  0  0  0  0
    5.0720   -2.4790   -1.2028 C   0  0  0  0  0  0  0  0  0  0  0  0
    4.6803   -1.2572   -1.7032 C   0  0  0  0  0  0  0  0  0  0  0  0
    4.6200   -0.3150   -0.6974 O   0  0  0  0  0  0  0  0  0  0  0  0
    4.9021   -1.0004    0.5479 C   0  0  1  0  0  0  0  0  0  0  0  0
    3.8060   -1.9337    1.1721 C   0  0  1  0  0  0  0  0  0  0  0  0
    2.6303   -2.2786    0.4718 O   0  0  0  0  0  0  0  0  0  0  0  0
    4.8966   -3.0465    1.2998 C   0  0  1  0  0  0  0  0  0  0  0  0
    5.4274   -3.0374    2.7328 C   0  0  0  0  0  0  0  0  0  0  0  0
    4.9587   -4.5087    0.7602 C   0  0  2  0  0  0  0  0  0  0  0  0
    6.4314   -4.9281    0.6320 C   0  0  0  0  0  0  0  0  0  0  0  0
    7.4199   -4.0236    0.4533 C   0  0  0  0  0  0  0  0  0  0  0  0
    7.1432   -2.5353    0.2562 C   0  0  1  0  0  0  0  0  0  0  0  0
    7.8595   -1.9451   -0.7975 O   0  0  0  0  0  0  0  0  0  0  0  0
    8.2821   -2.7245   -1.8776 C   0  0  0  0  0  0  0  0  0  0  0  0
    5.6148   -2.2906    0.1928 C   0  0  1  0  0  0  0  0  0  0  0  0
    4.3845   -4.7626   -0.6622 C   0  0  0  0  0  0  0  0  0  0  0  0
    3.2129    1.1508   -5.0904 H   0  0  0  0  0  0  0  0  0  0  0  0
    2.3083   -0.3208   -4.7306 H   0  0  0  0  0  0  0  0  0  0  0  0
    3.8436   -0.4079   -5.5999 H   0  0  0  0  0  0  0  0  0  0  0  0
    3.5820   -2.4245   -4.7021 H   0  0  0  0  0  0  0  0  0  0  0  0
    3.9253   -4.5347   -3.6379 H   0  0  0  0  0  0  0  0  0  0  0  0
    5.4624   -0.4241    1.2989 H   0  0  0  0  0  0  0  0  0  0  0  0
    3.5320   -1.4938    2.1350 H   0  0  0  0  0  0  0  0  0  0  0  0
    2.2453   -1.5002    0.0755 H   0  0  0  0  0  0  0  0  0  0  0  0
    6.2875   -3.6799    2.8018 H   0  0  0  0  0  0  0  0  0  0  0  0
    4.7056   -3.4625    3.4367 H   0  0  0  0  0  0  0  0  0  0  0  0
    5.7137   -2.0373    3.0830 H   0  0  0  0  0  0  0  0  0  0  0  0
    4.5149   -5.1767    1.5148 H   0  0  0  0  0  0  0  0  0  0  0  0
    6.6422   -5.9672    0.6901 H   0  0  0  0  0  0  0  0  0  0  0  0
    8.4545   -4.3414    0.4137 H   0  0  0  0  0  0  0  0  0  0  0  0
    7.5056   -2.0155    1.1518 H   0  0  0  0  0  0  0  0  0  0  0  0
    8.7312   -2.0545   -2.6110 H   0  0  0  0  0  0  0  0  0  0  0  0
    7.4796   -3.3074   -2.3395 H   0  0  0  0  0  0  0  0  0  0  0  0
    9.0510   -3.4347   -1.5611 H   0  0  0  0  0  0  0  0  0  0  0  0
    3.3030   -4.7936   -0.5263 H   0  0  0  0  0  0  0  0  0  0  0  0
    4.6807   -5.7592   -0.9884 H   0  0  0  0  0  0  0  0  0  0  0  0
  1  2  1  0
  1 23  1  0
  1 24  1  0
  1 25  1  0
  2  3  1  0
  3  8  2  0
  3  4  1  0
  4  5  2  0
  4 26  1  0
  5  6  1  0
  5 27  1  0
  6 22  1  0
  6  7  2  0
 21  7  1  6
  7  8  1  0
  8  9  1  0
  9 10  1  0
 10 21  1  0
 10 11  1  0
 10 28  1  1
 11 12  1  0
 11 13  1  0
 11 29  1  1
 12 30  1  0
 13 21  1  0
 13 14  1  1
 13 15  1  0
 14 31  1  0
 14 32  1  0
 14 33  1  0
 15 16  1  0
 15 22  1  0
 15 34  1  1
 16 17  2  0
 16 35  1  0
 17 18  1  0
 17 36  1  0
 18 19  1  0
 18 21  1  0
 18 37  1  1
 19 20  1  0
 20 38  1  0
 20 39  1  0
 20 40  1  0
 22 41  1  0
 22 42  1  0
M  END
>  <i_m_ct_stereo_status>  (292) 
1

>  <s_m_source_file>  (292) 
/var/tmp/pbs.5076255.sched01/tmparsu8qf0/123n9qi1oz7.sdf

>  <i_m_source_file_index>  (292) 
4

>  <i_lp_mmshare_version>  (292) 
48012

>  <i_f3d_flags>  (292) 
0

>  <s_epik_input>  (292) 
W0NAXTEyM2M0YzVbY0hdW2NIXWMoT1tDSDNdKWM0T1tDQEhdMVtDQEBIXShbT0hdKVtDQEBdMihbQ0gzXSlbQ0BASF0oW0NIMl01KVtDSF09W0NIXVtDQEhdM09bQ0gzXQ==

>  <s_epik_cmdline>  (292) 
J2VwaWtfcHl0aG9uJywgJy1waHQnLCAnMi4wJywgJy1waCcsICc3LjAnLCAnLXRuJywgJzgnLCAnLW1hJywgJzIwMCcsICctaW1hZScsICc8aW5maWxlLm1hZT4nLCAnLW9tYWUnLCAnPG91dGZpbGUubWFlPic=

>  <r_lp_tautomer_probability>  (292) 
1

>  <r_epik_Ionization_Penalty>  (292) 
1.75481e-07

>  <r_epik_Ionization_Penalty_Charging>  (292) 
0

>  <r_epik_Ionization_Penalty_Neutral>  (292) 
1.75481e-07

>  <r_epik_State_Penalty>  (292) 
-0

>  <r_epik_Charging_Adjusted_Penalty>  (292) 
0

>  <i_epik_Tot_Q>  (292) 
0

>  <i_epik_Tot_abs_Q>  (292) 
0

>  <s_lp_Force_Field>  (292) 
OPLS3e

>  <r_lp_Energy>  (292) 
90.9813

>  <b_lp_Chiralities_Consistent>  (292) 
1

>  <s_lp_Variant>  (292) 
93:0-1

>  <s_i_glide_gridfile>  (292) 
pfpi4k_grid

>  <i_i_glide_lignum>  (292) 
4

>  <i_i_glide_rotatable_bonds>  (292) 
3

>  <r_i_docking_score>  (292) 
-3.98503

>  <r_i_glide_ligand_efficiency>  (292) 
-0.181138

>  <r_i_glide_ligand_efficiency_sa>  (292) 
-0.507555

>  <r_i_glide_ligand_efficiency_ln>  (292) 
-0.974087

>  <r_i_glide_gscore>  (292) 
-3.98503

>  <r_i_glide_lipo>  (292) 
-0.928263

>  <r_i_glide_hbond>  (292) 
-0.16

>  <r_i_glide_metal>  (292) 
-0

>  <r_i_glide_rewards>  (292) 
-1.36126

>  <r_i_glide_evdw>  (292) 
-16.9731

>  <r_i_glide_ecoul>  (292) 
-4.57904

>  <r_i_glide_erotb>  (292) 
0

>  <r_i_glide_esite>  (292) 
0

>  <r_i_glide_emodel>  (292) 
-23.3749

>  <r_i_glide_energy>  (292) 
-21.5521

>  <r_i_glide_einternal>  (292) 
8.27571

>  <r_i_glide_intrahb_reward>  (292) 
-0

>  <i_i_glide_confnum>  (292) 
2

>  <i_i_glide_posenum>  (292) 
8

>  <r_i_glide_eff_state_penalty>  (292) 
0

>  <ligand_id>  (292) 
93

>  <original_smiles>  (292) 
COc1ccc2c3c1OC1C(O)C4(C)C(C=CC(OC)C314)C2

>  <smiles>  (292) 
[H]OC1([H])C2([H])Oc3c(OC([H])([H])[H])c([H])c([H])c4c3C23C([H])(OC([H])([H])[H])C([H])=C([H])C([H])(C4([H])[H])C13C([H])([H])[H]

$$$$
93:0:1
     RDKit          3D

 42 46  0  0  1  0  0  0  0  0999 V2000
    1.9237   -1.9945    5.6506 C   0  0  0  0  0  0  0  0  0  0  0  0
    2.1767   -2.6607    4.4288 O   0  0  0  0  0  0  0  0  0  0  0  0
    3.3210   -2.3291    3.7313 C   0  0  0  0  0  0  0  0  0  0  0  0
    4.2615   -1.3345    4.1396 C   0  0  0  0  0  0  0  0  0  0  0  0
    5.3075   -0.9141    3.2797 C   0  0  0  0  0  0  0  0  0  0  0  0
    5.5181   -1.6199    2.0620 C   0  0  0  0  0  0  0  0  0  0  0  0
    4.7080   -2.7359    1.8485 C   0  0  0  0  0  0  0  0  0  0  0  0
    3.5260   -2.9866    2.5051 C   0  0  0  0  0  0  0  0  0  0  0  0
    2.6309   -3.6677    1.7138 O   0  0  0  0  0  0  0  0  0  0  0  0
    3.2250   -3.7674    0.3898 C   0  0  1  0  0  0  0  0  0  0  0  0
    3.3811   -2.4946   -0.5116 C   0  0  1  0  0  0  0  0  0  0  0  0
    3.0173   -1.2209   -0.0097 O   0  0  0  0  0  0  0  0  0  0  0  0
    4.8951   -2.8470   -0.7013 C   0  0  1  0  0  0  0  0  0  0  0  0
    5.0992   -3.6053   -2.0327 C   0  0  0  0  0  0  0  0  0  0  0  0
    6.1930   -2.0303   -0.4274 C   0  0  2  0  0  0  0  0  0  0  0  0
    7.3319   -3.0179   -0.1215 C   0  0  0  0  0  0  0  0  0  0  0  0
    7.1144   -4.2489    0.3962 C   0  0  0  0  0  0  0  0  0  0  0  0
    5.7183   -4.7689    0.7488 C   0  0  1  0  0  0  0  0  0  0  0  0
    5.6374   -5.3491    2.0435 O   0  0  0  0  0  0  0  0  0  0  0  0
    6.3627   -6.5598    2.2073 C   0  0  0  0  0  0  0  0  0  0  0  0
    4.7276   -3.6090    0.6040 C   0  0  1  0  0  0  0  0  0  0  0  0
    6.1704   -1.0776    0.7955 C   0  0  0  0  0  0  0  0  0  0  0  0
    0.9987   -2.3832    6.0735 H   0  0  0  0  0  0  0  0  0  0  0  0
    1.7890   -0.9228    5.5019 H   0  0  0  0  0  0  0  0  0  0  0  0
    2.7179   -2.1610    6.3813 H   0  0  0  0  0  0  0  0  0  0  0  0
    4.1275   -0.7949    5.0605 H   0  0  0  0  0  0  0  0  0  0  0  0
    5.8782   -0.0270    3.4987 H   0  0  0  0  0  0  0  0  0  0  0  0
    2.9639   -4.6676   -0.1770 H   0  0  0  0  0  0  0  0  0  0  0  0
    2.8268   -2.6570   -1.4373 H   0  0  0  0  0  0  0  0  0  0  0  0
    2.0982   -1.0615   -0.3016 H   0  0  0  0  0  0  0  0  0  0  0  0
    6.0512   -4.1201   -2.0966 H   0  0  0  0  0  0  0  0  0  0  0  0
    5.0451   -2.9369   -2.8948 H   0  0  0  0  0  0  0  0  0  0  0  0
    4.3343   -4.3640   -2.1778 H   0  0  0  0  0  0  0  0  0  0  0  0
    6.4805   -1.4910   -1.3301 H   0  0  0  0  0  0  0  0  0  0  0  0
    8.3378   -2.6706   -0.2947 H   0  0  0  0  0  0  0  0  0  0  0  0
    7.9486   -4.9071    0.5906 H   0  0  0  0  0  0  0  0  0  0  0  0
    5.4834   -5.5267    0.0002 H   0  0  0  0  0  0  0  0  0  0  0  0
    6.1744   -6.9378    3.2097 H   0  0  0  0  0  0  0  0  0  0  0  0
    7.4371   -6.3970    2.1276 H   0  0  0  0  0  0  0  0  0  0  0  0
    6.0644   -7.3352    1.4965 H   0  0  0  0  0  0  0  0  0  0  0  0
    5.6254   -0.1800    0.5050 H   0  0  0  0  0  0  0  0  0  0  0  0
    7.1771   -0.7369    1.0247 H   0  0  0  0  0  0  0  0  0  0  0  0
  1  2  1  0
  1 23  1  0
  1 24  1  0
  1 25  1  0
  2  3  1  0
  3  8  2  0
  3  4  1  0
  4  5  2  0
  4 26  1  0
  5  6  1  0
  5 27  1  0
  6 22  1  0
  6  7  2  0
 21  7  1  1
  7  8  1  0
  8  9  1  0
  9 10  1  0
 10 21  1  0
 10 11  1  0
 10 28  1  6
 11 12  1  0
 11 13  1  0
 11 29  1  6
 12 30  1  0
 13 21  1  0
 13 14  1  6
 13 15  1  0
 14 31  1  0
 14 32  1  0
 14 33  1  0
 15 16  1  0
 15 22  1  0
 15 34  1  6
 16 17  2  0
 16 35  1  0
 17 18  1  0
 17 36  1  0
 18 19  1  0
 18 21  1  0
 18 37  1  6
 19 20  1  0
 20 38  1  0
 20 39  1  0
 20 40  1  0
 22 41  1  0
 22 42  1  0
M  END
>  <i_m_ct_stereo_status>  (293) 
1

>  <s_m_source_file>  (293) 
/var/tmp/pbs.5076255.sched01/tmparsu8qf0/123n9qi1oz7.sdf

>  <i_m_source_file_index>  (293) 
4

>  <i_lp_mmshare_version>  (293) 
48012

>  <i_f3d_flags>  (293) 
0

>  <s_epik_input>  (293) 
W0NAXTEyM2M0YzVbY0hdW2NIXWMoT1tDSDNdKWM0T1tDQEhdMVtDQEBIXShbT0hdKVtDQEBdMihbQ0gzXSlbQ0BASF0oW0NIMl01KVtDSF09W0NIXVtDQEhdM09bQ0gzXQ==

>  <s_epik_cmdline>  (293) 
J2VwaWtfcHl0aG9uJywgJy1waHQnLCAnMi4wJywgJy1waCcsICc3LjAnLCAnLXRuJywgJzgnLCAnLW1hJywgJzIwMCcsICctaW1hZScsICc8aW5maWxlLm1hZT4nLCAnLW9tYWUnLCAnPG91dGZpbGUubWFlPic=

>  <r_lp_tautomer_probability>  (293) 
1

>  <r_epik_Ionization_Penalty>  (293) 
1.75481e-07

>  <r_epik_Ionization_Penalty_Charging>  (293) 
0

>  <r_epik_Ionization_Penalty_Neutral>  (293) 
1.75481e-07

>  <r_epik_State_Penalty>  (293) 
-0

>  <r_epik_Charging_Adjusted_Penalty>  (293) 
0

>  <i_epik_Tot_Q>  (293) 
0

>  <i_epik_Tot_abs_Q>  (293) 
0

>  <s_lp_Force_Field>  (293) 
OPLS3e

>  <r_lp_Energy>  (293) 
90.9813

>  <b_lp_Chiralities_Consistent>  (293) 
1

>  <s_lp_Variant>  (293) 
93:0-1

>  <s_i_glide_gridfile>  (293) 
pfpi4k_grid

>  <i_i_glide_lignum>  (293) 
4

>  <i_i_glide_rotatable_bonds>  (293) 
3

>  <r_i_docking_score>  (293) 
-3.87174

>  <r_i_glide_ligand_efficiency>  (293) 
-0.175988

>  <r_i_glide_ligand_efficiency_sa>  (293) 
-0.493125

>  <r_i_glide_ligand_efficiency_ln>  (293) 
-0.946393

>  <r_i_glide_gscore>  (293) 
-3.87174

>  <r_i_glide_lipo>  (293) 
-0.84732

>  <r_i_glide_hbond>  (293) 
0

>  <r_i_glide_metal>  (293) 
-0

>  <r_i_glide_rewards>  (293) 
-1.36126

>  <r_i_glide_evdw>  (293) 
-13.6198

>  <r_i_glide_ecoul>  (293) 
-6.5478

>  <r_i_glide_erotb>  (293) 
0

>  <r_i_glide_esite>  (293) 
0

>  <r_i_glide_emodel>  (293) 
-25.6029

>  <r_i_glide_energy>  (293) 
-20.1676

>  <r_i_glide_einternal>  (293) 
1.35039

>  <r_i_glide_intrahb_reward>  (293) 
-0

>  <i_i_glide_confnum>  (293) 
2

>  <i_i_glide_posenum>  (293) 
1

>  <r_i_glide_eff_state_penalty>  (293) 
0

>  <ligand_id>  (293) 
93

>  <original_smiles>  (293) 
COc1ccc2c3c1OC1C(O)C4(C)C(C=CC(OC)C314)C2

>  <smiles>  (293) 
[H]OC1([H])C2([H])Oc3c(OC([H])([H])[H])c([H])c([H])c4c3C23C([H])(OC([H])([H])[H])C([H])=C([H])C([H])(C4([H])[H])C13C([H])([H])[H]

$$$$
93:0:2
     RDKit          3D

 42 46  0  0  1  0  0  0  0  0999 V2000
    2.6703   -5.3081    6.1074 C   0  0  0  0  0  0  0  0  0  0  0  0
    2.9088   -5.2393    4.7128 O   0  0  0  0  0  0  0  0  0  0  0  0
    3.6602   -4.1926    4.2262 C   0  0  0  0  0  0  0  0  0  0  0  0
    4.1625   -3.1203    5.0209 C   0  0  0  0  0  0  0  0  0  0  0  0
    4.7576   -1.9843    4.4113 C   0  0  0  0  0  0  0  0  0  0  0  0
    5.0107   -1.9857    3.0256 C   0  0  0  0  0  0  0  0  0  0  0  0
    4.7153   -3.1744    2.3486 C   0  0  0  0  0  0  0  0  0  0  0  0
    3.8899   -4.1653    2.8358 C   0  0  0  0  0  0  0  0  0  0  0  0
    3.2235   -4.8243    1.8342 O   0  0  0  0  0  0  0  0  0  0  0  0
    3.5474   -4.1379    0.5960 C   0  0  1  0  0  0  0  0  0  0  0  0
    2.9935   -2.6945    0.3060 C   0  0  1  0  0  0  0  0  0  0  0  0
    2.2138   -2.0007    1.2634 O   0  0  0  0  0  0  0  0  0  0  0  0
    4.4543   -2.2248   -0.0113 C   0  0  1  0  0  0  0  0  0  0  0  0
    4.7070   -2.2585   -1.5395 C   0  0  0  0  0  0  0  0  0  0  0  0
    5.3220   -1.0715    0.5958 C   0  0  2  0  0  0  0  0  0  0  0  0
    6.8032   -1.4742    0.4716 C   0  0  0  0  0  0  0  0  0  0  0  0
    7.2148   -2.7615    0.4067 C   0  0  0  0  0  0  0  0  0  0  0  0
    6.2509   -3.9507    0.4950 C   0  0  1  0  0  0  0  0  0  0  0  0
    6.6604   -4.9430    1.4309 O   0  0  0  0  0  0  0  0  0  0  0  0
    7.8061   -5.6944    1.0558 C   0  0  0  0  0  0  0  0  0  0  0  0
    4.8581   -3.4071    0.8598 C   0  0  1  0  0  0  0  0  0  0  0  0
    5.1360   -0.7696    2.1044 C   0  0  0  0  0  0  0  0  0  0  0  0
    2.0856   -6.2017    6.3188 H   0  0  0  0  0  0  0  0  0  0  0  0
    2.0971   -4.4498    6.4554 H   0  0  0  0  0  0  0  0  0  0  0  0
    3.5987   -5.3809    6.6734 H   0  0  0  0  0  0  0  0  0  0  0  0
    3.9875   -3.0854    6.0827 H   0  0  0  0  0  0  0  0  0  0  0  0
    4.9369   -1.0908    4.9915 H   0  0  0  0  0  0  0  0  0  0  0  0
    3.5752   -4.7831   -0.2840 H   0  0  0  0  0  0  0  0  0  0  0  0
    2.3957   -2.7429   -0.6025 H   0  0  0  0  0  0  0  0  0  0  0  0
    1.6494   -1.4326    0.7399 H   0  0  0  0  0  0  0  0  0  0  0  0
    5.7589   -2.2138   -1.8123 H   0  0  0  0  0  0  0  0  0  0  0  0
    4.2192   -1.4187   -2.0377 H   0  0  0  0  0  0  0  0  0  0  0  0
    4.3156   -3.1677   -1.9963 H   0  0  0  0  0  0  0  0  0  0  0  0
    5.1852   -0.1504    0.0276 H   0  0  0  0  0  0  0  0  0  0  0  0
    7.5278   -0.6757    0.4720 H   0  0  0  0  0  0  0  0  0  0  0  0
    8.2649   -2.9838    0.3179 H   0  0  0  0  0  0  0  0  0  0  0  0
    6.2091   -4.3968   -0.5010 H   0  0  0  0  0  0  0  0  0  0  0  0
    7.9839   -6.4587    1.8099 H   0  0  0  0  0  0  0  0  0  0  0  0
    8.6967   -5.0692    1.0102 H   0  0  0  0  0  0  0  0  0  0  0  0
    7.6821   -6.1992    0.0955 H   0  0  0  0  0  0  0  0  0  0  0  0
    4.2202   -0.1908    2.2189 H   0  0  0  0  0  0  0  0  0  0  0  0
    5.9337   -0.1305    2.4796 H   0  0  0  0  0  0  0  0  0  0  0  0
  1  2  1  0
  1 23  1  0
  1 24  1  0
  1 25  1  0
  2  3  1  0
  3  8  2  0
  3  4  1  0
  4  5  2  0
  4 26  1  0
  5  6  1  0
  5 27  1  0
  6 22  1  0
  6  7  2  0
 21  7  1  1
  7  8  1  0
  8  9  1  0
  9 10  1  0
 10 21  1  0
 10 11  1  0
 10 28  1  6
 11 12  1  0
 11 13  1  0
 11 29  1  6
 12 30  1  0
 13 21  1  0
 13 14  1  6
 13 15  1  0
 14 31  1  0
 14 32  1  0
 14 33  1  0
 15 16  1  0
 15 22  1  0
 15 34  1  6
 16 17  2  0
 16 35  1  0
 17 18  1  0
 17 36  1  0
 18 19  1  0
 18 21  1  0
 18 37  1  6
 19 20  1  0
 20 38  1  0
 20 39  1  0
 20 40  1  0
 22 41  1  0
 22 42  1  0
M  END
>  <i_m_ct_stereo_status>  (294) 
1

>  <s_m_source_file>  (294) 
/var/tmp/pbs.5076255.sched01/tmparsu8qf0/123n9qi1oz7.sdf

>  <i_m_source_file_index>  (294) 
4

>  <i_lp_mmshare_version>  (294) 
48012

>  <i_f3d_flags>  (294) 
0

>  <s_epik_input>  (294) 
W0NAXTEyM2M0YzVbY0hdW2NIXWMoT1tDSDNdKWM0T1tDQEhdMVtDQEBIXShbT0hdKVtDQEBdMihbQ0gzXSlbQ0BASF0oW0NIMl01KVtDSF09W0NIXVtDQEhdM09bQ0gzXQ==

>  <s_epik_cmdline>  (294) 
J2VwaWtfcHl0aG9uJywgJy1waHQnLCAnMi4wJywgJy1waCcsICc3LjAnLCAnLXRuJywgJzgnLCAnLW1hJywgJzIwMCcsICctaW1hZScsICc8aW5maWxlLm1hZT4nLCAnLW9tYWUnLCAnPG91dGZpbGUubWFlPic=

>  <r_lp_tautomer_probability>  (294) 
1

>  <r_epik_Ionization_Penalty>  (294) 
1.75481e-07

>  <r_epik_Ionization_Penalty_Charging>  (294) 
0

>  <r_epik_Ionization_Penalty_Neutral>  (294) 
1.75481e-07

>  <r_epik_State_Penalty>  (294) 
-0

>  <r_epik_Charging_Adjusted_Penalty>  (294) 
0

>  <i_epik_Tot_Q>  (294) 
0

>  <i_epik_Tot_abs_Q>  (294) 
0

>  <s_lp_Force_Field>  (294) 
OPLS3e

>  <r_lp_Energy>  (294) 
90.9813

>  <b_lp_Chiralities_Consistent>  (294) 
1

>  <s_lp_Variant>  (294) 
93:0-1

>  <s_i_glide_gridfile>  (294) 
pfpi4k_grid

>  <i_i_glide_lignum>  (294) 
4

>  <i_i_glide_rotatable_bonds>  (294) 
3

>  <r_i_docking_score>  (294) 
-3.34434

>  <r_i_glide_ligand_efficiency>  (294) 
-0.152016

>  <r_i_glide_ligand_efficiency_sa>  (294) 
-0.425954

>  <r_i_glide_ligand_efficiency_ln>  (294) 
-0.817479

>  <r_i_glide_gscore>  (294) 
-3.34434

>  <r_i_glide_lipo>  (294) 
-0.693012

>  <r_i_glide_hbond>  (294) 
0

>  <r_i_glide_metal>  (294) 
-0

>  <r_i_glide_rewards>  (294) 
-1.36126

>  <r_i_glide_evdw>  (294) 
-16.1827

>  <r_i_glide_ecoul>  (294) 
-3.20625

>  <r_i_glide_erotb>  (294) 
0

>  <r_i_glide_esite>  (294) 
0

>  <r_i_glide_emodel>  (294) 
-23.983

>  <r_i_glide_energy>  (294) 
-19.389

>  <r_i_glide_einternal>  (294) 
1.36392

>  <r_i_glide_intrahb_reward>  (294) 
-0

>  <i_i_glide_confnum>  (294) 
1

>  <i_i_glide_posenum>  (294) 
23

>  <r_i_glide_eff_state_penalty>  (294) 
0

>  <ligand_id>  (294) 
93

>  <original_smiles>  (294) 
COc1ccc2c3c1OC1C(O)C4(C)C(C=CC(OC)C314)C2

>  <smiles>  (294) 
[H]OC1([H])C2([H])Oc3c(OC([H])([H])[H])c([H])c([H])c4c3C23C([H])(OC([H])([H])[H])C([H])=C([H])C([H])(C4([H])[H])C13C([H])([H])[H]

$$$$
94:0:0
     RDKit          3D

 75 82  0  0  1  0  0  0  0  0999 V2000
    4.8586   -6.1965    0.1173 C   0  0  0  0  0  0  0  0  0  0  0  0
    4.6414   -5.6285    1.5246 C   0  0  0  0  0  0  0  0  0  0  0  0
    4.4393   -6.5840    2.4588 C   0  0  0  0  0  0  0  0  0  0  0  0
    4.0355   -6.5115    3.9166 C   0  0  1  0  0  0  0  0  0  0  0  0
    4.6608   -5.2950    4.5947 C   0  0  0  0  0  0  0  0  0  0  0  0
    3.9571   -3.9696    4.3822 C   0  0  0  0  0  0  0  0  0  0  0  0
    3.4923   -3.6398    2.9443 C   0  0  1  0  0  0  0  0  0  0  0  0
    1.9495   -3.7855    2.9081 C   0  0  0  0  0  0  0  0  0  0  0  0
    1.2788   -4.8184    3.6458 O   0  0  0  0  0  0  0  0  0  0  0  0
    1.4230   -6.2110    3.3535 C   0  0  2  0  0  0  0  0  0  0  0  0
    1.3683   -6.3687    1.7936 C   0  0  0  0  0  0  0  0  0  0  0  0
    0.2203   -7.0504    3.8551 C   0  0  2  0  0  0  0  0  0  0  0  0
   -0.5960   -6.4318    4.8598 O   0  0  0  0  0  0  0  0  0  0  0  0
   -0.1836   -5.8483    6.0225 C   0  0  0  0  0  0  0  0  0  0  0  0
   -0.9949   -5.3894    6.8299 O   0  0  0  0  0  0  0  0  0  0  0  0
    1.3219   -5.7001    6.3079 C   0  0  1  0  0  0  0  0  0  0  0  0
    1.5705   -5.3519    7.7972 C   0  0  0  0  0  0  0  0  0  0  0  0
    2.2245   -6.8659    5.8025 C   0  0  1  0  0  0  0  0  0  0  0  0
    1.7346   -8.2112    6.4417 C   0  0  0  0  0  0  0  0  0  0  0  0
    0.7294   -9.0107    5.5765 C   0  0  1  0  0  0  0  0  0  0  0  0
   -0.5843   -9.0607    6.1012 O   0  0  0  0  0  0  0  0  0  0  0  0
    0.7699   -8.4981    4.1251 C   0  0  2  0  0  0  0  0  0  0  0  0
    2.2659   -8.3706    3.7852 C   0  0  0  0  0  0  0  0  0  0  0  0
    2.5412   -6.9103    4.2159 C   0  0  2  0  0  0  0  0  0  0  0  0
    4.0088   -2.2200    2.5849 C   0  0  2  0  0  0  0  0  0  0  0  0
    3.1743   -1.4500    1.5353 C   0  0  1  0  0  0  0  0  0  0  0  0
    3.5481   -0.0869    1.4840 O   0  0  0  0  0  0  0  0  0  0  0  0
    3.2726   -2.2183    0.1891 C   0  0  1  0  0  0  0  0  0  0  0  0
    3.4117   -1.3881   -0.9439 O   0  0  0  0  0  0  0  0  0  0  0  0
    4.3718   -3.2905    0.2840 C   0  0  1  0  0  0  0  0  0  0  0  0
    5.8229   -2.8186    0.6632 C   0  0  0  0  0  0  0  0  0  0  0  0
    7.0198   -3.7094    0.3162 C   0  0  0  0  0  0  0  0  0  0  0  0
    6.2822   -1.4209    0.2023 C   0  0  0  0  0  0  0  0  0  0  0  0
    5.2893   -2.9794    2.0898 C   0  0  2  0  0  0  0  0  0  0  0  0
    4.3097   -4.0955    1.6518 C   0  0  2  0  0  0  0  0  0  0  0  0
    3.9806   -6.0115   -0.4988 H   0  0  0  0  0  0  0  0  0  0  0  0
    4.9733   -7.2797    0.1207 H   0  0  0  0  0  0  0  0  0  0  0  0
    5.7306   -5.8124   -0.3987 H   0  0  0  0  0  0  0  0  0  0  0  0
    4.5719   -7.6099    2.1544 H   0  0  0  0  0  0  0  0  0  0  0  0
    4.6101   -7.3373    4.3439 H   0  0  0  0  0  0  0  0  0  0  0  0
    4.7757   -5.4627    5.6621 H   0  0  0  0  0  0  0  0  0  0  0  0
    5.6841   -5.2032    4.2292 H   0  0  0  0  0  0  0  0  0  0  0  0
    3.1447   -3.8546    5.0843 H   0  0  0  0  0  0  0  0  0  0  0  0
    4.6655   -3.2294    4.7485 H   0  0  0  0  0  0  0  0  0  0  0  0
    1.5099   -2.8759    3.3186 H   0  0  0  0  0  0  0  0  0  0  0  0
    1.6256   -3.8107    1.8774 H   0  0  0  0  0  0  0  0  0  0  0  0
    1.3269   -7.3972    1.4401 H   0  0  0  0  0  0  0  0  0  0  0  0
    2.1718   -5.8830    1.2544 H   0  0  0  0  0  0  0  0  0  0  0  0
    0.4521   -5.9151    1.4183 H   0  0  0  0  0  0  0  0  0  0  0  0
   -0.4779   -7.1569    3.0271 H   0  0  0  0  0  0  0  0  0  0  0  0
    1.5957   -4.7871    5.8090 H   0  0  0  0  0  0  0  0  0  0  0  0
    1.1298   -4.3823    8.0450 H   0  0  0  0  0  0  0  0  0  0  0  0
    2.6368   -5.2787    8.0189 H   0  0  0  0  0  0  0  0  0  0  0  0
    1.1320   -6.0851    8.4771 H   0  0  0  0  0  0  0  0  0  0  0  0
    3.1740   -6.7080    6.3023 H   0  0  0  0  0  0  0  0  0  0  0  0
    2.6165   -8.8375    6.5969 H   0  0  0  0  0  0  0  0  0  0  0  0
    1.3354   -8.0694    7.4442 H   0  0  0  0  0  0  0  0  0  0  0  0
    1.0677  -10.0485    5.5920 H   0  0  0  0  0  0  0  0  0  0  0  0
   -1.0861   -9.7635    5.6787 H   0  0  0  0  0  0  0  0  0  0  0  0
    0.2813   -9.2280    3.4778 H   0  0  0  0  0  0  0  0  0  0  0  0
    2.8927   -9.0984    4.3054 H   0  0  0  0  0  0  0  0  0  0  0  0
    2.4552   -8.5601    2.7307 H   0  0  0  0  0  0  0  0  0  0  0  0
    4.2155   -1.6065    3.4634 H   0  0  0  0  0  0  0  0  0  0  0  0
    2.1252   -1.3941    1.8298 H   0  0  0  0  0  0  0  0  0  0  0  0
    2.9116    0.3733    0.9572 H   0  0  0  0  0  0  0  0  0  0  0  0
    2.3214   -2.7292    0.0471 H   0  0  0  0  0  0  0  0  0  0  0  0
    2.5205   -1.0577   -1.1118 H   0  0  0  0  0  0  0  0  0  0  0  0
    4.3998   -3.8928   -0.6182 H   0  0  0  0  0  0  0  0  0  0  0  0
    7.9696   -3.2332    0.5538 H   0  0  0  0  0  0  0  0  0  0  0  0
    7.0361   -3.9473   -0.7443 H   0  0  0  0  0  0  0  0  0  0  0  0
    7.0244   -4.6341    0.8852 H   0  0  0  0  0  0  0  0  0  0  0  0
    7.1963   -1.1019    0.7131 H   0  0  0  0  0  0  0  0  0  0  0  0
    5.5632   -0.6402    0.4012 H   0  0  0  0  0  0  0  0  0  0  0  0
    6.4552   -1.4043   -0.8752 H   0  0  0  0  0  0  0  0  0  0  0  0
    6.0217   -3.2448    2.8504 H   0  0  0  0  0  0  0  0  0  0  0  0
  1  2  1  0
  1 36  1  0
  1 37  1  0
  1 38  1  0
 35  2  1  6
  2  3  2  0
  3  4  1  0
  3 39  1  0
  4 24  1  0
  4  5  1  0
  4 40  1  1
  5  6  1  0
  5 41  1  0
  5 42  1  0
  6  7  1  0
  6 43  1  0
  6 44  1  0
  7 35  1  0
  7  8  1  6
  7 25  1  0
  8  9  1  0
  8 45  1  0
  8 46  1  0
  9 10  1  0
 10 24  1  0
 10 11  1  6
 10 12  1  0
 11 47  1  0
 11 48  1  0
 11 49  1  0
 12 22  1  0
 12 13  1  0
 12 50  1  6
 13 14  1  0
 14 15  2  0
 14 16  1  0
 16 17  1  0
 16 18  1  0
 16 51  1  6
 17 52  1  0
 17 53  1  0
 17 54  1  0
 18 24  1  0
 18 19  1  0
 18 55  1  1
 19 20  1  0
 19 56  1  0
 19 57  1  0
 20 21  1  0
 20 22  1  0
 20 58  1  6
 21 59  1  0
 22 23  1  0
 22 60  1  6
 24 23  1  6
 23 61  1  0
 23 62  1  0
 25 34  1  0
 25 26  1  0
 25 63  1  1
 26 27  1  0
 26 28  1  0
 26 64  1  1
 27 65  1  0
 28 29  1  0
 28 30  1  0
 28 66  1  6
 29 67  1  0
 30 35  1  0
 30 31  1  0
 30 68  1  6
 31 32  1  0
 31 33  1  0
 31 34  1  0
 32 69  1  0
 32 70  1  0
 32 71  1  0
 33 72  1  0
 33 73  1  0
 33 74  1  0
 34 35  1  0
 34 75  1  1
M  END
>  <i_m_ct_stereo_status>  (295) 
1

>  <s_m_source_file>  (295) 
/var/tmp/pbs.5076255.sched01/tmparsu8qf0/123n9qi1oz7.sdf

>  <i_m_source_file_index>  (295) 
5

>  <i_lp_mmshare_version>  (295) 
48012

>  <i_f3d_flags>  (295) 
0

>  <s_epik_input>  (295) 
W0NIM11DMShbQ0gzXSlbQ0BIXTJbQ0BIXTNbQ0BASF0oW09IXSlbQ0BASF0oW09IXSlbQ0BASF0xW0NAQF0yKFtDQF0zNDUpQyhbQ0gzXSk9W0NIXVtDQEBIXShbQ0gyXVtDSDJdNClbQ0BdNjdbQ0BdKFtDSDNdKShPW0NIMl01KVtDQEhdOFtDQEBIXShbQ0gyXTcpW0NASF0oW09IXSlbQ0gyXVtDQEBIXTZbQ0BASF0oQyhPOCk9TylbQ0gzXQ==

>  <s_epik_cmdline>  (295) 
J2VwaWtfcHl0aG9uJywgJy1waHQnLCAnMi4wJywgJy1waCcsICc3LjAnLCAnLXRuJywgJzgnLCAnLW1hJywgJzIwMCcsICctaW1hZScsICc8aW5maWxlLm1hZT4nLCAnLW9tYWUnLCAnPG91dGZpbGUubWFlPic=

>  <r_lp_tautomer_probability>  (295) 
1

>  <r_epik_Ionization_Penalty>  (295) 
1.11324e-06

>  <r_epik_Ionization_Penalty_Charging>  (295) 
0

>  <r_epik_Ionization_Penalty_Neutral>  (295) 
1.11324e-06

>  <r_epik_State_Penalty>  (295) 
-0

>  <r_epik_Charging_Adjusted_Penalty>  (295) 
0

>  <i_epik_Tot_Q>  (295) 
0

>  <i_epik_Tot_abs_Q>  (295) 
0

>  <s_epik_Chemistry_Notes>  (295) 
This compound has an ester and may undergo hydrolysis at high or low pH.

>  <s_lp_Force_Field>  (295) 
OPLS3e

>  <r_lp_Energy>  (295) 
166.348

>  <b_lp_Chiralities_Consistent>  (295) 
1

>  <s_lp_Variant>  (295) 
94:0-1

>  <s_i_glide_gridfile>  (295) 
pfpi4k_grid

>  <i_i_glide_lignum>  (295) 
5

>  <i_i_glide_rotatable_bonds>  (295) 
3

>  <r_i_docking_score>  (295) 
-2.91291

>  <r_i_glide_ligand_efficiency>  (295) 
-0.083226

>  <r_i_glide_ligand_efficiency_sa>  (295) 
-0.272238

>  <r_i_glide_ligand_efficiency_ln>  (295) 
-0.639449

>  <r_i_glide_gscore>  (295) 
-2.91291

>  <r_i_glide_lipo>  (295) 
-0.420343

>  <r_i_glide_hbond>  (295) 
0

>  <r_i_glide_metal>  (295) 
-0

>  <r_i_glide_rewards>  (295) 
-0.104834

>  <r_i_glide_evdw>  (295) 
-21.5834

>  <r_i_glide_ecoul>  (295) 
-8.70956

>  <r_i_glide_erotb>  (295) 
0

>  <r_i_glide_esite>  (295) 
-0.00212868

>  <r_i_glide_emodel>  (295) 
-35.8584

>  <r_i_glide_energy>  (295) 
-30.293

>  <r_i_glide_einternal>  (295) 
1.36667

>  <r_i_glide_intrahb_reward>  (295) 
-0

>  <i_i_glide_confnum>  (295) 
1

>  <i_i_glide_posenum>  (295) 
1

>  <r_i_glide_eff_state_penalty>  (295) 
0

>  <ligand_id>  (295) 
94

>  <original_smiles>  (295) 
CC1=CC2CCC3(COC4(C)C5OC(=O)C(C)C6CC(O)C5CC264)C2C(O)C(O)C4C(C)(C)C2C143

>  <smiles>  (295) 
[H]OC1([H])C([H])([H])C2([H])C([H])(C([H])([H])[H])C(=O)OC3([H])C1([H])C([H])([H])C21C2([H])C([H])=C(C([H])([H])[H])C45C6([H])C([H])(O[H])C([H])(O[H])C([H])(C4([H])C6(C([H])([H])[H])C([H])([H])[H])C5(C([H])([H])OC31C([H])([H])[H])C([H])([H])C2([H])[H]

$$$$
94:0:1
     RDKit          3D

 75 82  0  0  1  0  0  0  0  0999 V2000
    5.8594   -5.6164    2.0347 C   0  0  0  0  0  0  0  0  0  0  0  0
    5.4525   -4.1706    2.3636 C   0  0  0  0  0  0  0  0  0  0  0  0
    5.1127   -3.9954    3.6648 C   0  0  0  0  0  0  0  0  0  0  0  0
    4.5186   -2.8197    4.4122 C   0  0  1  0  0  0  0  0  0  0  0  0
    5.0420   -1.4928    3.8634 C   0  0  0  0  0  0  0  0  0  0  0  0
    4.3913   -0.9694    2.6059 C   0  0  0  0  0  0  0  0  0  0  0  0
    4.1386   -1.9897    1.4641 C   0  0  1  0  0  0  0  0  0  0  0  0
    2.6142   -2.2733    1.4314 C   0  0  0  0  0  0  0  0  0  0  0  0
    1.8541   -2.3356    2.6475 O   0  0  0  0  0  0  0  0  0  0  0  0
    2.0173   -3.3712    3.6206 C   0  0  2  0  0  0  0  0  0  0  0  0
    2.1752   -4.7256    2.8474 C   0  0  0  0  0  0  0  0  0  0  0  0
    0.7535   -3.5835    4.4909 C   0  0  2  0  0  0  0  0  0  0  0  0
   -0.1921   -2.5082    4.5096 O   0  0  0  0  0  0  0  0  0  0  0  0
    0.0461   -1.1878    4.7449 C   0  0  0  0  0  0  0  0  0  0  0  0
   -0.8847   -0.3795    4.8050 O   0  0  0  0  0  0  0  0  0  0  0  0
    1.5073   -0.7065    4.8996 C   0  0  1  0  0  0  0  0  0  0  0  0
    1.5631    0.7226    5.4935 C   0  0  0  0  0  0  0  0  0  0  0  0
    2.4710   -1.6894    5.6320 C   0  0  1  0  0  0  0  0  0  0  0  0
    1.8917   -2.0061    7.0536 C   0  0  0  0  0  0  0  0  0  0  0  0
    1.0089   -3.2721    7.1134 C   0  0  1  0  0  0  0  0  0  0  0  0
   -0.3624   -3.0160    7.3566 O   0  0  0  0  0  0  0  0  0  0  0  0
    1.2477   -4.1471    5.8711 C   0  0  2  0  0  0  0  0  0  0  0  0
    2.7746   -4.1918    5.7003 C   0  0  0  0  0  0  0  0  0  0  0  0
    2.9959   -2.9642    4.7851 C   0  0  2  0  0  0  0  0  0  0  0  0
    4.7198   -1.3920    0.1537 C   0  0  2  0  0  0  0  0  0  0  0  0
    4.0517   -1.8755   -1.1522 C   0  0  1  0  0  0  0  0  0  0  0  0
    4.4498   -1.0643   -2.2431 O   0  0  0  0  0  0  0  0  0  0  0  0
    4.3110   -3.4012   -1.2962 C   0  0  1  0  0  0  0  0  0  0  0  0
    4.6016   -3.8555   -2.6078 O   0  0  0  0  0  0  0  0  0  0  0  0
    5.3741   -3.8416   -0.2754 C   0  0  1  0  0  0  0  0  0  0  0  0
    6.7674   -3.1112   -0.3078 C   0  0  0  0  0  0  0  0  0  0  0  0
    7.9970   -3.7821    0.3205 C   0  0  0  0  0  0  0  0  0  0  0  0
    7.3026   -2.6331   -1.6712 C   0  0  0  0  0  0  0  0  0  0  0  0
    6.0509   -2.1053    0.6057 C   0  0  2  0  0  0  0  0  0  0  0  0
    5.1256   -3.2075    1.1650 C   0  0  2  0  0  0  0  0  0  0  0  0
    5.0744   -6.1036    1.4551 H   0  0  0  0  0  0  0  0  0  0  0  0
    5.9695   -6.2262    2.9332 H   0  0  0  0  0  0  0  0  0  0  0  0
    6.7989   -5.7210    1.4998 H   0  0  0  0  0  0  0  0  0  0  0  0
    5.2842   -4.8251    4.3362 H   0  0  0  0  0  0  0  0  0  0  0  0
    5.0307   -2.8911    5.3745 H   0  0  0  0  0  0  0  0  0  0  0  0
    5.0290   -0.7179    4.6273 H   0  0  0  0  0  0  0  0  0  0  0  0
    6.0919   -1.6228    3.6244 H   0  0  0  0  0  0  0  0  0  0  0  0
    3.4931   -0.4172    2.8415 H   0  0  0  0  0  0  0  0  0  0  0  0
    5.0577   -0.1720    2.2796 H   0  0  0  0  0  0  0  0  0  0  0  0
    2.1498   -1.4447    0.9028 H   0  0  0  0  0  0  0  0  0  0  0  0
    2.3999   -3.1511    0.8264 H   0  0  0  0  0  0  0  0  0  0  0  0
    2.1720   -5.6135    3.4750 H   0  0  0  0  0  0  0  0  0  0  0  0
    3.0464   -4.7938    2.2115 H   0  0  0  0  0  0  0  0  0  0  0  0
    1.3303   -4.8629    2.1733 H   0  0  0  0  0  0  0  0  0  0  0  0
    0.1763   -4.3876    4.0391 H   0  0  0  0  0  0  0  0  0  0  0  0
    1.8551   -0.5427    3.8955 H   0  0  0  0  0  0  0  0  0  0  0  0
    1.1019    1.4425    4.8102 H   0  0  0  0  0  0  0  0  0  0  0  0
    2.5919    1.0553    5.6513 H   0  0  0  0  0  0  0  0  0  0  0  0
    1.0337    0.8004    6.4465 H   0  0  0  0  0  0  0  0  0  0  0  0
    3.3493   -1.0951    5.8724 H   0  0  0  0  0  0  0  0  0  0  0  0
    2.7388   -2.1615    7.7246 H   0  0  0  0  0  0  0  0  0  0  0  0
    1.3626   -1.1576    7.4844 H   0  0  0  0  0  0  0  0  0  0  0  0
    1.3323   -3.8380    7.9884 H   0  0  0  0  0  0  0  0  0  0  0  0
   -0.8020   -3.8511    7.4243 H   0  0  0  0  0  0  0  0  0  0  0  0
    0.8450   -5.1442    6.0434 H   0  0  0  0  0  0  0  0  0  0  0  0
    3.3202   -4.1299    6.6426 H   0  0  0  0  0  0  0  0  0  0  0  0
    3.1045   -5.1304    5.2625 H   0  0  0  0  0  0  0  0  0  0  0  0
    4.8050   -0.3048    0.1849 H   0  0  0  0  0  0  0  0  0  0  0  0
    2.9747   -1.7215   -1.1208 H   0  0  0  0  0  0  0  0  0  0  0  0
    3.9870   -0.2413   -2.1798 H   0  0  0  0  0  0  0  0  0  0  0  0
    3.3760   -3.9001   -1.0443 H   0  0  0  0  0  0  0  0  0  0  0  0
    4.1890   -4.7035   -2.7204 H   0  0  0  0  0  0  0  0  0  0  0  0
    5.5207   -4.9162   -0.3036 H   0  0  0  0  0  0  0  0  0  0  0  0
    8.9086   -3.2094    0.1475 H   0  0  0  0  0  0  0  0  0  0  0  0
    8.1605   -4.7773   -0.0893 H   0  0  0  0  0  0  0  0  0  0  0  0
    7.9184   -3.8561    1.4018 H   0  0  0  0  0  0  0  0  0  0  0  0
    8.1567   -1.9643   -1.5596 H   0  0  0  0  0  0  0  0  0  0  0  0
    6.5683   -2.0933   -2.2534 H   0  0  0  0  0  0  0  0  0  0  0  0
    7.6249   -3.4639   -2.2982 H   0  0  0  0  0  0  0  0  0  0  0  0
    6.6722   -1.5690    1.3240 H   0  0  0  0  0  0  0  0  0  0  0  0
  1  2  1  0
  1 36  1  0
  1 37  1  0
  1 38  1  0
 35  2  1  1
  2  3  2  0
  3  4  1  0
  3 39  1  0
  4 24  1  0
  4  5  1  0
  4 40  1  1
  5  6  1  0
  5 41  1  0
  5 42  1  0
  6  7  1  0
  6 43  1  0
  6 44  1  0
  7 35  1  0
  7  8  1  6
  7 25  1  0
  8  9  1  0
  8 45  1  0
  8 46  1  0
  9 10  1  0
 10 24  1  0
 10 11  1  6
 10 12  1  0
 11 47  1  0
 11 48  1  0
 11 49  1  0
 12 22  1  0
 12 13  1  0
 12 50  1  6
 13 14  1  0
 14 15  2  0
 14 16  1  0
 16 17  1  0
 16 18  1  0
 16 51  1  6
 17 52  1  0
 17 53  1  0
 17 54  1  0
 18 24  1  0
 18 19  1  0
 18 55  1  1
 19 20  1  0
 19 56  1  0
 19 57  1  0
 20 21  1  0
 20 22  1  0
 20 58  1  1
 21 59  1  0
 22 23  1  0
 22 60  1  1
 24 23  1  1
 23 61  1  0
 23 62  1  0
 25 34  1  0
 25 26  1  0
 25 63  1  1
 26 27  1  0
 26 28  1  0
 26 64  1  1
 27 65  1  0
 28 29  1  0
 28 30  1  0
 28 66  1  1
 29 67  1  0
 30 35  1  0
 30 31  1  0
 30 68  1  1
 31 32  1  0
 31 33  1  0
 31 34  1  0
 32 69  1  0
 32 70  1  0
 32 71  1  0
 33 72  1  0
 33 73  1  0
 33 74  1  0
 34 35  1  0
 34 75  1  1
M  END
>  <i_m_ct_stereo_status>  (296) 
1

>  <s_m_source_file>  (296) 
/var/tmp/pbs.5076255.sched01/tmparsu8qf0/123n9qi1oz7.sdf

>  <i_m_source_file_index>  (296) 
5

>  <i_lp_mmshare_version>  (296) 
48012

>  <i_f3d_flags>  (296) 
0

>  <s_epik_input>  (296) 
W0NIM11DMShbQ0gzXSlbQ0BIXTJbQ0BIXTNbQ0BASF0oW09IXSlbQ0BASF0oW09IXSlbQ0BASF0xW0NAQF0yKFtDQF0zNDUpQyhbQ0gzXSk9W0NIXVtDQEBIXShbQ0gyXVtDSDJdNClbQ0BdNjdbQ0BdKFtDSDNdKShPW0NIMl01KVtDQEhdOFtDQEBIXShbQ0gyXTcpW0NASF0oW09IXSlbQ0gyXVtDQEBIXTZbQ0BASF0oQyhPOCk9TylbQ0gzXQ==

>  <s_epik_cmdline>  (296) 
J2VwaWtfcHl0aG9uJywgJy1waHQnLCAnMi4wJywgJy1waCcsICc3LjAnLCAnLXRuJywgJzgnLCAnLW1hJywgJzIwMCcsICctaW1hZScsICc8aW5maWxlLm1hZT4nLCAnLW9tYWUnLCAnPG91dGZpbGUubWFlPic=

>  <r_lp_tautomer_probability>  (296) 
1

>  <r_epik_Ionization_Penalty>  (296) 
1.11324e-06

>  <r_epik_Ionization_Penalty_Charging>  (296) 
0

>  <r_epik_Ionization_Penalty_Neutral>  (296) 
1.11324e-06

>  <r_epik_State_Penalty>  (296) 
-0

>  <r_epik_Charging_Adjusted_Penalty>  (296) 
0

>  <i_epik_Tot_Q>  (296) 
0

>  <i_epik_Tot_abs_Q>  (296) 
0

>  <s_epik_Chemistry_Notes>  (296) 
This compound has an ester and may undergo hydrolysis at high or low pH.

>  <s_lp_Force_Field>  (296) 
OPLS3e

>  <r_lp_Energy>  (296) 
166.348

>  <b_lp_Chiralities_Consistent>  (296) 
1

>  <s_lp_Variant>  (296) 
94:0-1

>  <s_i_glide_gridfile>  (296) 
pfpi4k_grid

>  <i_i_glide_lignum>  (296) 
5

>  <i_i_glide_rotatable_bonds>  (296) 
3

>  <r_i_docking_score>  (296) 
-2.9126

>  <r_i_glide_ligand_efficiency>  (296) 
-0.0832171

>  <r_i_glide_ligand_efficiency_sa>  (296) 
-0.272209

>  <r_i_glide_ligand_efficiency_ln>  (296) 
-0.63938

>  <r_i_glide_gscore>  (296) 
-2.9126

>  <r_i_glide_lipo>  (296) 
-0.720292

>  <r_i_glide_hbond>  (296) 
0

>  <r_i_glide_metal>  (296) 
-0

>  <r_i_glide_rewards>  (296) 
-0.104834

>  <r_i_glide_evdw>  (296) 
-23.9771

>  <r_i_glide_ecoul>  (296) 
-5.83496

>  <r_i_glide_erotb>  (296) 
0

>  <r_i_glide_esite>  (296) 
-0.0133733

>  <r_i_glide_emodel>  (296) 
-35.118

>  <r_i_glide_energy>  (296) 
-29.812

>  <r_i_glide_einternal>  (296) 
1.857

>  <r_i_glide_intrahb_reward>  (296) 
-0

>  <i_i_glide_confnum>  (296) 
1

>  <i_i_glide_posenum>  (296) 
36

>  <r_i_glide_eff_state_penalty>  (296) 
0

>  <ligand_id>  (296) 
94

>  <original_smiles>  (296) 
CC1=CC2CCC3(COC4(C)C5OC(=O)C(C)C6CC(O)C5CC264)C2C(O)C(O)C4C(C)(C)C2C143

>  <smiles>  (296) 
[H]OC1([H])C([H])([H])C2([H])C([H])(C([H])([H])[H])C(=O)OC3([H])C1([H])C([H])([H])C21C2([H])C([H])=C(C([H])([H])[H])C45C6([H])C([H])(O[H])C([H])(O[H])C([H])(C4([H])C6(C([H])([H])[H])C([H])([H])[H])C5(C([H])([H])OC31C([H])([H])[H])C([H])([H])C2([H])[H]

$$$$
94:0:2
     RDKit          3D

 75 82  0  0  1  0  0  0  0  0999 V2000
    5.8475   -5.6315    2.0295 C   0  0  0  0  0  0  0  0  0  0  0  0
    5.4475   -4.1850    2.3606 C   0  0  0  0  0  0  0  0  0  0  0  0
    5.1086   -4.0096    3.6620 C   0  0  0  0  0  0  0  0  0  0  0  0
    4.5198   -2.8322    4.4105 C   0  0  1  0  0  0  0  0  0  0  0  0
    5.0506   -1.5070    3.8647 C   0  0  0  0  0  0  0  0  0  0  0  0
    4.4035   -0.9775    2.6079 C   0  0  0  0  0  0  0  0  0  0  0  0
    4.1470   -1.9944    1.4635 C   0  0  1  0  0  0  0  0  0  0  0  0
    2.6201   -2.2692    1.4293 C   0  0  0  0  0  0  0  0  0  0  0  0
    1.8594   -2.3300    2.6453 O   0  0  0  0  0  0  0  0  0  0  0  0
    2.0153   -3.3686    3.6175 C   0  0  2  0  0  0  0  0  0  0  0  0
    2.1676   -4.7224    2.8420 C   0  0  0  0  0  0  0  0  0  0  0  0
    0.7503   -3.5762    4.4863 C   0  0  2  0  0  0  0  0  0  0  0  0
   -0.1912   -2.4960    4.5066 O   0  0  0  0  0  0  0  0  0  0  0  0
    0.0543   -1.1762    4.7443 C   0  0  0  0  0  0  0  0  0  0  0  0
   -0.8713   -0.3633    4.8061 O   0  0  0  0  0  0  0  0  0  0  0  0
    1.5190   -0.7045    4.9007 C   0  0  1  0  0  0  0  0  0  0  0  0
    1.5828    0.7231    5.4971 C   0  0  0  0  0  0  0  0  0  0  0  0
    2.4777   -1.6928    5.6317 C   0  0  1  0  0  0  0  0  0  0  0  0
    1.8953   -2.0095    7.0524 C   0  0  0  0  0  0  0  0  0  0  0  0
    1.0064   -3.2717    7.1097 C   0  0  1  0  0  0  0  0  0  0  0  0
   -0.3635   -3.0098    7.3518 O   0  0  0  0  0  0  0  0  0  0  0  0
    1.2410   -4.1446    5.8655 C   0  0  2  0  0  0  0  0  0  0  0  0
    2.7679   -4.1973    5.6957 C   0  0  0  0  0  0  0  0  0  0  0  0
    2.9959   -2.9689    4.7831 C   0  0  2  0  0  0  0  0  0  0  0  0
    4.7360   -1.3971    0.1561 C   0  0  2  0  0  0  0  0  0  0  0  0
    4.0633   -1.8755   -1.1474 C   0  0  1  0  0  0  0  0  0  0  0  0
    4.4528   -1.0766   -2.2478 O   0  0  0  0  0  0  0  0  0  0  0  0
    4.3082   -3.4037   -1.2966 C   0  0  1  0  0  0  0  0  0  0  0  0
    4.6024   -3.8413   -2.6093 O   0  0  0  0  0  0  0  0  0  0  0  0
    5.3722   -3.8519   -0.2775 C   0  0  1  0  0  0  0  0  0  0  0  0
    6.7693   -3.1293   -0.3090 C   0  0  0  0  0  0  0  0  0  0  0  0
    7.9961   -3.8066    0.3202 C   0  0  0  0  0  0  0  0  0  0  0  0
    7.3093   -2.6485   -1.6697 C   0  0  0  0  0  0  0  0  0  0  0  0
    6.0604   -2.1212    0.6092 C   0  0  2  0  0  0  0  0  0  0  0  0
    5.1287   -3.2180    1.1645 C   0  0  2  0  0  0  0  0  0  0  0  0
    5.0599   -6.1132    1.4487 H   0  0  0  0  0  0  0  0  0  0  0  0
    5.9543   -6.2430    2.9272 H   0  0  0  0  0  0  0  0  0  0  0  0
    6.7867   -5.7399    1.4943 H   0  0  0  0  0  0  0  0  0  0  0  0
    5.2753   -4.8411    4.3318 H   0  0  0  0  0  0  0  0  0  0  0  0
    5.0311   -2.9074    5.3731 H   0  0  0  0  0  0  0  0  0  0  0  0
    5.0426   -0.7333    4.6297 H   0  0  0  0  0  0  0  0  0  0  0  0
    6.0991   -1.6429    3.6241 H   0  0  0  0  0  0  0  0  0  0  0  0
    3.5077   -0.4213    2.8434 H   0  0  0  0  0  0  0  0  0  0  0  0
    5.0741   -0.1829    2.2825 H   0  0  0  0  0  0  0  0  0  0  0  0
    2.1615   -1.4369    0.9020 H   0  0  0  0  0  0  0  0  0  0  0  0
    2.4016   -3.1454    0.8241 H   0  0  0  0  0  0  0  0  0  0  0  0
    2.1594   -5.6112    3.4680 H   0  0  0  0  0  0  0  0  0  0  0  0
    3.0389   -4.7941    2.2067 H   0  0  0  0  0  0  0  0  0  0  0  0
    1.3228   -4.8544    2.1671 H   0  0  0  0  0  0  0  0  0  0  0  0
    0.1698   -4.3770    4.0327 H   0  0  0  0  0  0  0  0  0  0  0  0
    1.8686   -0.5403    3.8975 H   0  0  0  0  0  0  0  0  0  0  0  0
    1.1260    1.4471    4.8151 H   0  0  0  0  0  0  0  0  0  0  0  0
    2.6134    1.0502    5.6561 H   0  0  0  0  0  0  0  0  0  0  0  0
    1.0535    0.8021    6.4501 H   0  0  0  0  0  0  0  0  0  0  0  0
    3.3594   -1.1038    5.8737 H   0  0  0  0  0  0  0  0  0  0  0  0
    2.7414   -2.1708    7.7236 H   0  0  0  0  0  0  0  0  0  0  0  0
    1.3706   -1.1592    7.4850 H   0  0  0  0  0  0  0  0  0  0  0  0
    1.3263   -3.8408    7.9837 H   0  0  0  0  0  0  0  0  0  0  0  0
   -0.8073   -3.8436    7.4154 H   0  0  0  0  0  0  0  0  0  0  0  0
    0.8332   -5.1400    6.0356 H   0  0  0  0  0  0  0  0  0  0  0  0
    3.3134   -4.1398    6.6384 H   0  0  0  0  0  0  0  0  0  0  0  0
    3.0936   -5.1369    5.2568 H   0  0  0  0  0  0  0  0  0  0  0  0
    4.8247   -0.3102    0.1853 H   0  0  0  0  0  0  0  0  0  0  0  0
    2.9906   -1.7023   -1.1089 H   0  0  0  0  0  0  0  0  0  0  0  0
    3.7700   -1.1408   -2.9013 H   0  0  0  0  0  0  0  0  0  0  0  0
    3.3703   -3.8978   -1.0472 H   0  0  0  0  0  0  0  0  0  0  0  0
    4.2854   -4.7386   -2.6950 H   0  0  0  0  0  0  0  0  0  0  0  0
    5.5132   -4.9278   -0.3086 H   0  0  0  0  0  0  0  0  0  0  0  0
    8.9106   -3.2377    0.1485 H   0  0  0  0  0  0  0  0  0  0  0  0
    8.1556   -4.8019   -0.0908 H   0  0  0  0  0  0  0  0  0  0  0  0
    7.9167   -3.8811    1.4019 H   0  0  0  0  0  0  0  0  0  0  0  0
    8.1678   -1.9870   -1.5555 H   0  0  0  0  0  0  0  0  0  0  0  0
    6.5795   -2.1037   -2.2510 H   0  0  0  0  0  0  0  0  0  0  0  0
    7.6292   -3.4777   -2.3003 H   0  0  0  0  0  0  0  0  0  0  0  0
    6.6833   -1.5891    1.3281 H   0  0  0  0  0  0  0  0  0  0  0  0
  1  2  1  0
  1 36  1  0
  1 37  1  0
  1 38  1  0
 35  2  1  1
  2  3  2  0
  3  4  1  0
  3 39  1  0
  4 24  1  0
  4  5  1  0
  4 40  1  1
  5  6  1  0
  5 41  1  0
  5 42  1  0
  6  7  1  0
  6 43  1  0
  6 44  1  0
  7 35  1  0
  7  8  1  6
  7 25  1  0
  8  9  1  0
  8 45  1  0
  8 46  1  0
  9 10  1  0
 10 24  1  0
 10 11  1  6
 10 12  1  0
 11 47  1  0
 11 48  1  0
 11 49  1  0
 12 22  1  0
 12 13  1  0
 12 50  1  6
 13 14  1  0
 14 15  2  0
 14 16  1  0
 16 17  1  0
 16 18  1  0
 16 51  1  6
 17 52  1  0
 17 53  1  0
 17 54  1  0
 18 24  1  0
 18 19  1  0
 18 55  1  1
 19 20  1  0
 19 56  1  0
 19 57  1  0
 20 21  1  0
 20 22  1  0
 20 58  1  1
 21 59  1  0
 22 23  1  0
 22 60  1  1
 24 23  1  1
 23 61  1  0
 23 62  1  0
 25 34  1  0
 25 26  1  0
 25 63  1  1
 26 27  1  0
 26 28  1  0
 26 64  1  1
 27 65  1  0
 28 29  1  0
 28 30  1  0
 28 66  1  1
 29 67  1  0
 30 35  1  0
 30 31  1  0
 30 68  1  1
 31 32  1  0
 31 33  1  0
 31 34  1  0
 32 69  1  0
 32 70  1  0
 32 71  1  0
 33 72  1  0
 33 73  1  0
 33 74  1  0
 34 35  1  0
 34 75  1  1
M  END
>  <i_m_ct_stereo_status>  (297) 
1

>  <s_m_source_file>  (297) 
/var/tmp/pbs.5076255.sched01/tmparsu8qf0/123n9qi1oz7.sdf

>  <i_m_source_file_index>  (297) 
5

>  <i_lp_mmshare_version>  (297) 
48012

>  <i_f3d_flags>  (297) 
0

>  <s_epik_input>  (297) 
W0NIM11DMShbQ0gzXSlbQ0BIXTJbQ0BIXTNbQ0BASF0oW09IXSlbQ0BASF0oW09IXSlbQ0BASF0xW0NAQF0yKFtDQF0zNDUpQyhbQ0gzXSk9W0NIXVtDQEBIXShbQ0gyXVtDSDJdNClbQ0BdNjdbQ0BdKFtDSDNdKShPW0NIMl01KVtDQEhdOFtDQEBIXShbQ0gyXTcpW0NASF0oW09IXSlbQ0gyXVtDQEBIXTZbQ0BASF0oQyhPOCk9TylbQ0gzXQ==

>  <s_epik_cmdline>  (297) 
J2VwaWtfcHl0aG9uJywgJy1waHQnLCAnMi4wJywgJy1waCcsICc3LjAnLCAnLXRuJywgJzgnLCAnLW1hJywgJzIwMCcsICctaW1hZScsICc8aW5maWxlLm1hZT4nLCAnLW9tYWUnLCAnPG91dGZpbGUubWFlPic=

>  <r_lp_tautomer_probability>  (297) 
1

>  <r_epik_Ionization_Penalty>  (297) 
1.11324e-06

>  <r_epik_Ionization_Penalty_Charging>  (297) 
0

>  <r_epik_Ionization_Penalty_Neutral>  (297) 
1.11324e-06

>  <r_epik_State_Penalty>  (297) 
-0

>  <r_epik_Charging_Adjusted_Penalty>  (297) 
0

>  <i_epik_Tot_Q>  (297) 
0

>  <i_epik_Tot_abs_Q>  (297) 
0

>  <s_epik_Chemistry_Notes>  (297) 
This compound has an ester and may undergo hydrolysis at high or low pH.

>  <s_lp_Force_Field>  (297) 
OPLS3e

>  <r_lp_Energy>  (297) 
166.348

>  <b_lp_Chiralities_Consistent>  (297) 
1

>  <s_lp_Variant>  (297) 
94:0-1

>  <s_i_glide_gridfile>  (297) 
pfpi4k_grid

>  <i_i_glide_lignum>  (297) 
5

>  <i_i_glide_rotatable_bonds>  (297) 
3

>  <r_i_docking_score>  (297) 
-2.81247

>  <r_i_glide_ligand_efficiency>  (297) 
-0.0803562

>  <r_i_glide_ligand_efficiency_sa>  (297) 
-0.26285

>  <r_i_glide_ligand_efficiency_ln>  (297) 
-0.617399

>  <r_i_glide_gscore>  (297) 
-2.81247

>  <r_i_glide_lipo>  (297) 
-0.723093

>  <r_i_glide_hbond>  (297) 
0

>  <r_i_glide_metal>  (297) 
-0

>  <r_i_glide_rewards>  (297) 
-0.104834

>  <r_i_glide_evdw>  (297) 
-24.013

>  <r_i_glide_ecoul>  (297) 
-5.13787

>  <r_i_glide_erotb>  (297) 
0

>  <r_i_glide_esite>  (297) 
-0.0132095

>  <r_i_glide_emodel>  (297) 
-34.2602

>  <r_i_glide_energy>  (297) 
-29.1509

>  <r_i_glide_einternal>  (297) 
1.84789

>  <r_i_glide_intrahb_reward>  (297) 
-0

>  <i_i_glide_confnum>  (297) 
1

>  <i_i_glide_posenum>  (297) 
12

>  <r_i_glide_eff_state_penalty>  (297) 
0

>  <ligand_id>  (297) 
94

>  <original_smiles>  (297) 
CC1=CC2CCC3(COC4(C)C5OC(=O)C(C)C6CC(O)C5CC264)C2C(O)C(O)C4C(C)(C)C2C143

>  <smiles>  (297) 
[H]OC1([H])C([H])([H])C2([H])C([H])(C([H])([H])[H])C(=O)OC3([H])C1([H])C([H])([H])C21C2([H])C([H])=C(C([H])([H])[H])C45C6([H])C([H])(O[H])C([H])(O[H])C([H])(C4([H])C6(C([H])([H])[H])C([H])([H])[H])C5(C([H])([H])OC31C([H])([H])[H])C([H])([H])C2([H])[H]

$$$$
95:0:0
     RDKit          3D

 47 50  0  0  1  0  0  0  0  0999 V2000
    3.8767   -0.7806   -2.4138 C   0  0  0  0  0  0  0  0  0  0  0  0
    3.8820   -2.1217   -1.6526 C   0  0  1  0  0  0  0  0  0  0  0  0
    2.8595   -3.0152   -2.4123 C   0  0  0  0  0  0  0  0  0  0  0  0
    3.3497   -3.3889   -3.7373 N   0  0  0  0  0  0  0  0  0  0  0  0
    4.6807   -3.7135   -3.9130 C   0  0  0  0  0  0  0  0  0  0  0  0
    5.6254   -3.4223   -2.9988 C   0  0  0  0  0  0  0  0  0  0  0  0
    5.2844   -2.7158   -1.7767 C   0  0  0  0  0  0  0  0  0  0  0  0
    6.2031   -2.5883   -0.8025 C   0  0  0  0  0  0  0  0  0  0  0  0
    5.9817   -1.8659    0.5184 C   0  0  0  0  0  0  0  0  0  0  0  0
    4.6162   -1.1429    0.6231 C   0  0  1  0  0  0  0  0  0  0  0  0
    3.4984   -1.8847   -0.1501 C   0  0  2  0  0  0  0  0  0  0  0  0
    3.0593   -3.1322    0.6475 C   0  0  0  0  0  0  0  0  0  0  0  0
    2.5262   -2.7277    2.0340 C   0  0  0  0  0  0  0  0  0  0  0  0
    3.5381   -1.9429    2.9060 C   0  0  2  0  0  0  0  0  0  0  0  0
    4.5436   -2.9335    3.5360 C   0  0  0  0  0  0  0  0  0  0  0  0
    2.7629   -1.1616    3.9964 C   0  0  1  0  0  0  0  0  0  0  0  0
    3.6044   -0.7430    5.0529 O   0  0  0  0  0  0  0  0  0  0  0  0
    2.2358    0.0940    3.2956 C   0  0  0  0  0  0  0  0  0  0  0  0
    3.2515    0.4037    2.1897 C   0  0  0  0  0  0  0  0  0  0  0  0
    4.2079   -0.8063    2.0858 C   0  0  2  0  0  0  0  0  0  0  0  0
    2.8927   -0.3230   -2.3406 H   0  0  0  0  0  0  0  0  0  0  0  0
    4.0925   -0.9007   -3.4759 H   0  0  0  0  0  0  0  0  0  0  0  0
    4.6170   -0.0818   -2.0318 H   0  0  0  0  0  0  0  0  0  0  0  0
    2.6982   -3.9500   -1.8875 H   0  0  0  0  0  0  0  0  0  0  0  0
    1.8896   -2.5253   -2.5054 H   0  0  0  0  0  0  0  0  0  0  0  0
    4.9003   -4.2485   -4.8273 H   0  0  0  0  0  0  0  0  0  0  0  0
    6.6523   -3.7010   -3.1736 H   0  0  0  0  0  0  0  0  0  0  0  0
    2.6598   -3.7013   -4.4071 H   0  0  0  0  0  0  0  0  0  0  0  0
    7.1840   -3.0285   -0.9258 H   0  0  0  0  0  0  0  0  0  0  0  0
    6.7859   -1.1399    0.6581 H   0  0  0  0  0  0  0  0  0  0  0  0
    6.1008   -2.6104    1.3015 H   0  0  0  0  0  0  0  0  0  0  0  0
    4.7635   -0.1817    0.1352 H   0  0  0  0  0  0  0  0  0  0  0  0
    2.6314   -1.2322   -0.1481 H   0  0  0  0  0  0  0  0  0  0  0  0
    2.2441   -3.6468    0.1425 H   0  0  0  0  0  0  0  0  0  0  0  0
    3.8727   -3.8530    0.7372 H   0  0  0  0  0  0  0  0  0  0  0  0
    1.6249   -2.1357    1.8726 H   0  0  0  0  0  0  0  0  0  0  0  0
    2.1917   -3.6187    2.5678 H   0  0  0  0  0  0  0  0  0  0  0  0
    5.3951   -2.4202    3.9804 H   0  0  0  0  0  0  0  0  0  0  0  0
    4.9324   -3.6453    2.8118 H   0  0  0  0  0  0  0  0  0  0  0  0
    4.0723   -3.5182    4.3238 H   0  0  0  0  0  0  0  0  0  0  0  0
    1.9516   -1.7494    4.4310 H   0  0  0  0  0  0  0  0  0  0  0  0
    4.2784   -0.1876    4.6916 H   0  0  0  0  0  0  0  0  0  0  0  0
    1.2661   -0.1123    2.8400 H   0  0  0  0  0  0  0  0  0  0  0  0
    2.0862    0.9361    3.9744 H   0  0  0  0  0  0  0  0  0  0  0  0
    2.7281    0.6086    1.2542 H   0  0  0  0  0  0  0  0  0  0  0  0
    3.8130    1.3015    2.4443 H   0  0  0  0  0  0  0  0  0  0  0  0
    5.1144   -0.5097    2.6173 H   0  0  0  0  0  0  0  0  0  0  0  0
  2  1  1  6
  1 21  1  0
  1 22  1  0
  1 23  1  0
  2 11  1  0
  2  3  1  0
  2  7  1  0
  3 24  1  0
  3 25  1  0
  3  4  1  0
  4 28  1  0
  4  5  1  0
  5 26  1  0
  5  6  2  0
  6 27  1  0
  6  7  1  0
  7  8  2  0
  8  9  1  0
  8 29  1  0
  9 10  1  0
  9 30  1  0
  9 31  1  0
 10 20  1  0
 10 11  1  0
 10 32  1  6
 11 12  1  0
 11 33  1  6
 12 13  1  0
 12 34  1  0
 12 35  1  0
 13 14  1  0
 13 36  1  0
 13 37  1  0
 14 20  1  0
 14 15  1  1
 14 16  1  0
 15 38  1  0
 15 39  1  0
 15 40  1  0
 16 17  1  0
 16 18  1  0
 16 41  1  1
 17 42  1  0
 18 19  1  0
 18 43  1  0
 18 44  1  0
 19 20  1  0
 19 45  1  0
 19 46  1  0
 20 47  1  1
M  END
>  <i_m_ct_stereo_status>  (298) 
1

>  <s_m_source_file>  (298) 
/var/tmp/pbs.5076255.sched01/tmparsu8qf0/123n9qi1oz7.sdf

>  <i_m_source_file_index>  (298) 
6

>  <i_lp_mmshare_version>  (298) 
48012

>  <i_f3d_flags>  (298) 
0

>  <s_epik_input>  (298) 
W0NIMl0xTj1bQ0hdW0NIMl1DKFtDQEBdMTJbQ0gzXSk9W0NIXVtDSDJdW0NASF0zW0NAQEhdMltDSDJdW0NIMl1bQ0BAXTQoW0NIM10pW0NAQEhdM1tDSDJdW0NIMl1bQ0BASF00W09IXQ==

>  <s_epik_cmdline>  (298) 
J2VwaWtfcHl0aG9uJywgJy1waHQnLCAnMi4wJywgJy1waCcsICc3LjAnLCAnLXRuJywgJzgnLCAnLW1hJywgJzIwMCcsICctaW1hZScsICc8aW5maWxlLm1hZT4nLCAnLW9tYWUnLCAnPG91dGZpbGUubWFlPic=

>  <r_lp_tautomer_probability>  (298) 
1

>  <r_epik_Ionization_Penalty>  (298) 
5.01384e-05

>  <r_epik_Ionization_Penalty_Charging>  (298) 
0

>  <r_epik_Ionization_Penalty_Neutral>  (298) 
5.01384e-05

>  <r_epik_State_Penalty>  (298) 
-0

>  <r_epik_Charging_Adjusted_Penalty>  (298) 
0

>  <i_epik_Tot_Q>  (298) 
0

>  <i_epik_Tot_abs_Q>  (298) 
0

>  <s_lp_Force_Field>  (298) 
OPLS3e

>  <r_lp_Energy>  (298) 
37.718

>  <b_lp_Chiralities_Consistent>  (298) 
1

>  <s_lp_Variant>  (298) 
95:0-1

>  <s_i_glide_gridfile>  (298) 
pfpi4k_grid

>  <i_i_glide_lignum>  (298) 
6

>  <i_i_glide_rotatable_bonds>  (298) 
1

>  <r_i_docking_score>  (298) 
-3.56468

>  <r_i_glide_ligand_efficiency>  (298) 
-0.178234

>  <r_i_glide_ligand_efficiency_sa>  (298) 
-0.483801

>  <r_i_glide_ligand_efficiency_ln>  (298) 
-0.892121

>  <r_i_glide_gscore>  (298) 
-3.56468

>  <r_i_glide_lipo>  (298) 
-0.498853

>  <r_i_glide_hbond>  (298) 
0

>  <r_i_glide_metal>  (298) 
-0

>  <r_i_glide_rewards>  (298) 
-1.54491

>  <r_i_glide_evdw>  (298) 
-24.773

>  <r_i_glide_ecoul>  (298) 
-1.88176

>  <r_i_glide_erotb>  (298) 
0

>  <r_i_glide_esite>  (298) 
0

>  <r_i_glide_emodel>  (298) 
-32.1109

>  <r_i_glide_energy>  (298) 
-26.6548

>  <r_i_glide_einternal>  (298) 
0.00573888

>  <r_i_glide_intrahb_reward>  (298) 
-0

>  <i_i_glide_confnum>  (298) 
1

>  <i_i_glide_posenum>  (298) 
37

>  <r_i_glide_eff_state_penalty>  (298) 
0

>  <ligand_id>  (298) 
95

>  <original_smiles>  (298) 
CC12CN=CCC1=CCC1C2CCC2(C)C(O)CCC12

>  <smiles>  (298) 
[H]OC1([H])C([H])([H])C([H])([H])C2([H])C3([H])C([H])([H])C([H])=C4C([H])=C([H])N([H])C([H])([H])C4(C([H])([H])[H])C3([H])C([H])([H])C([H])([H])C12C([H])([H])[H]

$$$$
95:0:1
     RDKit          3D

 47 50  0  0  1  0  0  0  0  0999 V2000
    6.3458   -1.8834    0.3596 C   0  0  0  0  0  0  0  0  0  0  0  0
    4.8495   -2.2384    0.1656 C   0  0  1  0  0  0  0  0  0  0  0  0
    4.2206   -1.0713   -0.6545 C   0  0  0  0  0  0  0  0  0  0  0  0
    4.6926   -1.0701   -2.0357 N   0  0  0  0  0  0  0  0  0  0  0  0
    4.8889   -2.2570   -2.7194 C   0  0  0  0  0  0  0  0  0  0  0  0
    4.9171   -3.4509   -2.1037 C   0  0  0  0  0  0  0  0  0  0  0  0
    4.7812   -3.5327   -0.6563 C   0  0  0  0  0  0  0  0  0  0  0  0
    4.6196   -4.7355   -0.0757 C   0  0  0  0  0  0  0  0  0  0  0  0
    4.4803   -4.9714    1.4170 C   0  0  0  0  0  0  0  0  0  0  0  0
    4.6805   -3.7019    2.2840 C   0  0  1  0  0  0  0  0  0  0  0  0
    4.1874   -2.4120    1.5757 C   0  0  2  0  0  0  0  0  0  0  0  0
    2.6430   -2.3807    1.6132 C   0  0  0  0  0  0  0  0  0  0  0  0
    2.1288   -2.3817    3.0625 C   0  0  0  0  0  0  0  0  0  0  0  0
    2.5891   -3.6006    3.9038 C   0  0  2  0  0  0  0  0  0  0  0  0
    1.7077   -4.8232    3.5557 C   0  0  0  0  0  0  0  0  0  0  0  0
    2.4815   -3.2474    5.4086 C   0  0  1  0  0  0  0  0  0  0  0  0
    2.4962   -4.3991    6.2298 O   0  0  0  0  0  0  0  0  0  0  0  0
    3.7419   -2.4336    5.7199 C   0  0  0  0  0  0  0  0  0  0  0  0
    4.8200   -2.9488    4.7557 C   0  0  0  0  0  0  0  0  0  0  0  0
    4.1127   -3.8548    3.7238 C   0  0  2  0  0  0  0  0  0  0  0  0
    6.4716   -0.9968    0.9822 H   0  0  0  0  0  0  0  0  0  0  0  0
    6.8317   -1.6843   -0.5946 H   0  0  0  0  0  0  0  0  0  0  0  0
    6.9076   -2.6986    0.8158 H   0  0  0  0  0  0  0  0  0  0  0  0
    3.1376   -1.1691   -0.7188 H   0  0  0  0  0  0  0  0  0  0  0  0
    4.4330   -0.1080   -0.1900 H   0  0  0  0  0  0  0  0  0  0  0  0
    4.9817   -2.1466   -3.7906 H   0  0  0  0  0  0  0  0  0  0  0  0
    5.0550   -4.3508   -2.6856 H   0  0  0  0  0  0  0  0  0  0  0  0
    4.6034   -0.2026   -2.5490 H   0  0  0  0  0  0  0  0  0  0  0  0
    4.5721   -5.6227   -0.6914 H   0  0  0  0  0  0  0  0  0  0  0  0
    5.2137   -5.7265    1.7073 H   0  0  0  0  0  0  0  0  0  0  0  0
    3.5011   -5.4175    1.5705 H   0  0  0  0  0  0  0  0  0  0  0  0
    5.7582   -3.6140    2.4089 H   0  0  0  0  0  0  0  0  0  0  0  0
    4.5089   -1.5585    2.1701 H   0  0  0  0  0  0  0  0  0  0  0  0
    2.2556   -1.4743    1.1515 H   0  0  0  0  0  0  0  0  0  0  0  0
    2.2191   -3.2129    1.0516 H   0  0  0  0  0  0  0  0  0  0  0  0
    2.4634   -1.4525    3.5242 H   0  0  0  0  0  0  0  0  0  0  0  0
    1.0392   -2.3259    3.0587 H   0  0  0  0  0  0  0  0  0  0  0  0
    2.1200   -5.7478    3.9574 H   0  0  0  0  0  0  0  0  0  0  0  0
    1.5902   -4.9574    2.4835 H   0  0  0  0  0  0  0  0  0  0  0  0
    0.7065   -4.7122    3.9691 H   0  0  0  0  0  0  0  0  0  0  0  0
    1.5729   -2.6871    5.6374 H   0  0  0  0  0  0  0  0  0  0  0  0
    3.2876   -4.8852    6.0462 H   0  0  0  0  0  0  0  0  0  0  0  0
    3.5567   -1.3775    5.5172 H   0  0  0  0  0  0  0  0  0  0  0  0
    4.0472   -2.4973    6.7661 H   0  0  0  0  0  0  0  0  0  0  0  0
    5.3273   -2.1038    4.2866 H   0  0  0  0  0  0  0  0  0  0  0  0
    5.5789   -3.5179    5.2950 H   0  0  0  0  0  0  0  0  0  0  0  0
    4.3125   -4.8782    4.0484 H   0  0  0  0  0  0  0  0  0  0  0  0
  2  1  1  1
  1 21  1  0
  1 22  1  0
  1 23  1  0
  2 11  1  0
  2  3  1  0
  2  7  1  0
  3 24  1  0
  3 25  1  0
  3  4  1  0
  4 28  1  0
  4  5  1  0
  5 26  1  0
  5  6  2  0
  6 27  1  0
  6  7  1  0
  7  8  2  0
  8  9  1  0
  8 29  1  0
  9 10  1  0
  9 30  1  0
  9 31  1  0
 10 20  1  0
 10 11  1  0
 10 32  1  1
 11 12  1  0
 11 33  1  1
 12 13  1  0
 12 34  1  0
 12 35  1  0
 13 14  1  0
 13 36  1  0
 13 37  1  0
 14 20  1  0
 14 15  1  1
 14 16  1  0
 15 38  1  0
 15 39  1  0
 15 40  1  0
 16 17  1  0
 16 18  1  0
 16 41  1  6
 17 42  1  0
 18 19  1  0
 18 43  1  0
 18 44  1  0
 19 20  1  0
 19 45  1  0
 19 46  1  0
 20 47  1  1
M  END
>  <i_m_ct_stereo_status>  (299) 
1

>  <s_m_source_file>  (299) 
/var/tmp/pbs.5076255.sched01/tmparsu8qf0/123n9qi1oz7.sdf

>  <i_m_source_file_index>  (299) 
6

>  <i_lp_mmshare_version>  (299) 
48012

>  <i_f3d_flags>  (299) 
0

>  <s_epik_input>  (299) 
W0NIMl0xTj1bQ0hdW0NIMl1DKFtDQEBdMTJbQ0gzXSk9W0NIXVtDSDJdW0NASF0zW0NAQEhdMltDSDJdW0NIMl1bQ0BAXTQoW0NIM10pW0NAQEhdM1tDSDJdW0NIMl1bQ0BASF00W09IXQ==

>  <s_epik_cmdline>  (299) 
J2VwaWtfcHl0aG9uJywgJy1waHQnLCAnMi4wJywgJy1waCcsICc3LjAnLCAnLXRuJywgJzgnLCAnLW1hJywgJzIwMCcsICctaW1hZScsICc8aW5maWxlLm1hZT4nLCAnLW9tYWUnLCAnPG91dGZpbGUubWFlPic=

>  <r_lp_tautomer_probability>  (299) 
1

>  <r_epik_Ionization_Penalty>  (299) 
5.01384e-05

>  <r_epik_Ionization_Penalty_Charging>  (299) 
0

>  <r_epik_Ionization_Penalty_Neutral>  (299) 
5.01384e-05

>  <r_epik_State_Penalty>  (299) 
-0

>  <r_epik_Charging_Adjusted_Penalty>  (299) 
0

>  <i_epik_Tot_Q>  (299) 
0

>  <i_epik_Tot_abs_Q>  (299) 
0

>  <s_lp_Force_Field>  (299) 
OPLS3e

>  <r_lp_Energy>  (299) 
37.718

>  <b_lp_Chiralities_Consistent>  (299) 
1

>  <s_lp_Variant>  (299) 
95:0-1

>  <s_i_glide_gridfile>  (299) 
pfpi4k_grid

>  <i_i_glide_lignum>  (299) 
6

>  <i_i_glide_rotatable_bonds>  (299) 
1

>  <r_i_docking_score>  (299) 
-3.18503

>  <r_i_glide_ligand_efficiency>  (299) 
-0.159251

>  <r_i_glide_ligand_efficiency_sa>  (299) 
-0.432275

>  <r_i_glide_ligand_efficiency_ln>  (299) 
-0.797108

>  <r_i_glide_gscore>  (299) 
-3.18503

>  <r_i_glide_lipo>  (299) 
-0.37771

>  <r_i_glide_hbond>  (299) 
0

>  <r_i_glide_metal>  (299) 
-0

>  <r_i_glide_rewards>  (299) 
-1.54491

>  <r_i_glide_evdw>  (299) 
-21.2931

>  <r_i_glide_ecoul>  (299) 
-1.04869

>  <r_i_glide_erotb>  (299) 
0

>  <r_i_glide_esite>  (299) 
-0.0404527

>  <r_i_glide_emodel>  (299) 
-27.237

>  <r_i_glide_energy>  (299) 
-22.3418

>  <r_i_glide_einternal>  (299) 
0.000863952

>  <r_i_glide_intrahb_reward>  (299) 
-0

>  <i_i_glide_confnum>  (299) 
1

>  <i_i_glide_posenum>  (299) 
1

>  <r_i_glide_eff_state_penalty>  (299) 
0

>  <ligand_id>  (299) 
95

>  <original_smiles>  (299) 
CC12CN=CCC1=CCC1C2CCC2(C)C(O)CCC12

>  <smiles>  (299) 
[H]OC1([H])C([H])([H])C([H])([H])C2([H])C3([H])C([H])([H])C([H])=C4C([H])=C([H])N([H])C([H])([H])C4(C([H])([H])[H])C3([H])C([H])([H])C([H])([H])C12C([H])([H])[H]

$$$$
95:0:2
     RDKit          3D

 47 50  0  0  1  0  0  0  0  0999 V2000
    6.3319   -1.8521    0.2626 C   0  0  0  0  0  0  0  0  0  0  0  0
    4.8380   -2.2290    0.0938 C   0  0  1  0  0  0  0  0  0  0  0  0
    4.1823   -1.0717   -0.7188 C   0  0  0  0  0  0  0  0  0  0  0  0
    4.6257   -1.0679   -2.1096 N   0  0  0  0  0  0  0  0  0  0  0  0
    4.8270   -2.2540   -2.7945 C   0  0  0  0  0  0  0  0  0  0  0  0
    4.8845   -3.4454   -2.1745 C   0  0  0  0  0  0  0  0  0  0  0  0
    4.7749   -3.5253   -0.7248 C   0  0  0  0  0  0  0  0  0  0  0  0
    4.6420   -4.7288   -0.1389 C   0  0  0  0  0  0  0  0  0  0  0  0
    4.5299   -4.9644    1.3565 C   0  0  0  0  0  0  0  0  0  0  0  0
    4.7239   -3.6908    2.2178 C   0  0  1  0  0  0  0  0  0  0  0  0
    4.2001   -2.4100    1.5148 C   0  0  2  0  0  0  0  0  0  0  0  0
    2.6556   -2.3996    1.5786 C   0  0  0  0  0  0  0  0  0  0  0  0
    2.1662   -2.4058    3.0367 C   0  0  0  0  0  0  0  0  0  0  0  0
    2.6589   -3.6161    3.8728 C   0  0  2  0  0  0  0  0  0  0  0  0
    1.7899   -4.8529    3.5416 C   0  0  0  0  0  0  0  0  0  0  0  0
    2.5730   -3.2617    5.3783 C   0  0  1  0  0  0  0  0  0  0  0  0
    2.6352   -4.4110    6.1999 O   0  0  0  0  0  0  0  0  0  0  0  0
    3.8253   -2.4277    5.6662 C   0  0  0  0  0  0  0  0  0  0  0  0
    4.8931   -2.9287    4.6847 C   0  0  0  0  0  0  0  0  0  0  0  0
    4.1824   -3.8478    3.6674 C   0  0  2  0  0  0  0  0  0  0  0  0
    6.4550   -0.9625    0.8814 H   0  0  0  0  0  0  0  0  0  0  0  0
    6.7974   -1.6471   -0.7000 H   0  0  0  0  0  0  0  0  0  0  0  0
    6.9138   -2.6576    0.7104 H   0  0  0  0  0  0  0  0  0  0  0  0
    3.0999   -1.1858   -0.7648 H   0  0  0  0  0  0  0  0  0  0  0  0
    4.3857   -0.1043   -0.2600 H   0  0  0  0  0  0  0  0  0  0  0  0
    4.9010   -2.1445   -3.8662 H   0  0  0  0  0  0  0  0  0  0  0  0
    5.0257   -4.3450   -2.7556 H   0  0  0  0  0  0  0  0  0  0  0  0
    4.5300   -0.2010   -2.6208 H   0  0  0  0  0  0  0  0  0  0  0  0
    4.6001   -5.6180   -0.7509 H   0  0  0  0  0  0  0  0  0  0  0  0
    5.2792   -5.7074    1.6358 H   0  0  0  0  0  0  0  0  0  0  0  0
    3.5607   -5.4253    1.5270 H   0  0  0  0  0  0  0  0  0  0  0  0
    5.8021   -3.5861    2.3243 H   0  0  0  0  0  0  0  0  0  0  0  0
    4.5189   -1.5509    2.1025 H   0  0  0  0  0  0  0  0  0  0  0  0
    2.2494   -1.4986    1.1222 H   0  0  0  0  0  0  0  0  0  0  0  0
    2.2325   -3.2375    1.0244 H   0  0  0  0  0  0  0  0  0  0  0  0
    2.4975   -1.4714    3.4896 H   0  0  0  0  0  0  0  0  0  0  0  0
    1.0760   -2.3634    3.0520 H   0  0  0  0  0  0  0  0  0  0  0  0
    2.2258   -5.7712    3.9336 H   0  0  0  0  0  0  0  0  0  0  0  0
    1.6595   -4.9893    2.4711 H   0  0  0  0  0  0  0  0  0  0  0  0
    0.7919   -4.7576    3.9660 H   0  0  0  0  0  0  0  0  0  0  0  0
    1.6593   -2.7163    5.6201 H   0  0  0  0  0  0  0  0  0  0  0  0
    1.9221   -4.9856    5.9615 H   0  0  0  0  0  0  0  0  0  0  0  0
    3.6200   -1.3749    5.4668 H   0  0  0  0  0  0  0  0  0  0  0  0
    4.1481   -2.4907    6.7064 H   0  0  0  0  0  0  0  0  0  0  0  0
    5.3821   -2.0785    4.2072 H   0  0  0  0  0  0  0  0  0  0  0  0
    5.6665   -3.4875    5.2140 H   0  0  0  0  0  0  0  0  0  0  0  0
    4.4030   -4.8659    3.9954 H   0  0  0  0  0  0  0  0  0  0  0  0
  2  1  1  1
  1 21  1  0
  1 22  1  0
  1 23  1  0
  2 11  1  0
  2  3  1  0
  2  7  1  0
  3 24  1  0
  3 25  1  0
  3  4  1  0
  4 28  1  0
  4  5  1  0
  5 26  1  0
  5  6  2  0
  6 27  1  0
  6  7  1  0
  7  8  2  0
  8  9  1  0
  8 29  1  0
  9 10  1  0
  9 30  1  0
  9 31  1  0
 10 20  1  0
 10 11  1  0
 10 32  1  1
 11 12  1  0
 11 33  1  1
 12 13  1  0
 12 34  1  0
 12 35  1  0
 13 14  1  0
 13 36  1  0
 13 37  1  0
 14 20  1  0
 14 15  1  1
 14 16  1  0
 15 38  1  0
 15 39  1  0
 15 40  1  0
 16 17  1  0
 16 18  1  0
 16 41  1  6
 17 42  1  0
 18 19  1  0
 18 43  1  0
 18 44  1  0
 19 20  1  0
 19 45  1  0
 19 46  1  0
 20 47  1  1
M  END
>  <i_m_ct_stereo_status>  (300) 
1

>  <s_m_source_file>  (300) 
/var/tmp/pbs.5076255.sched01/tmparsu8qf0/123n9qi1oz7.sdf

>  <i_m_source_file_index>  (300) 
6

>  <i_lp_mmshare_version>  (300) 
48012

>  <i_f3d_flags>  (300) 
0

>  <s_epik_input>  (300) 
W0NIMl0xTj1bQ0hdW0NIMl1DKFtDQEBdMTJbQ0gzXSk9W0NIXVtDSDJdW0NASF0zW0NAQEhdMltDSDJdW0NIMl1bQ0BAXTQoW0NIM10pW0NAQEhdM1tDSDJdW0NIMl1bQ0BASF00W09IXQ==

>  <s_epik_cmdline>  (300) 
J2VwaWtfcHl0aG9uJywgJy1waHQnLCAnMi4wJywgJy1waCcsICc3LjAnLCAnLXRuJywgJzgnLCAnLW1hJywgJzIwMCcsICctaW1hZScsICc8aW5maWxlLm1hZT4nLCAnLW9tYWUnLCAnPG91dGZpbGUubWFlPic=

>  <r_lp_tautomer_probability>  (300) 
1

>  <r_epik_Ionization_Penalty>  (300) 
5.01384e-05

>  <r_epik_Ionization_Penalty_Charging>  (300) 
0

>  <r_epik_Ionization_Penalty_Neutral>  (300) 
5.01384e-05

>  <r_epik_State_Penalty>  (300) 
-0

>  <r_epik_Charging_Adjusted_Penalty>  (300) 
0

>  <i_epik_Tot_Q>  (300) 
0

>  <i_epik_Tot_abs_Q>  (300) 
0

>  <s_lp_Force_Field>  (300) 
OPLS3e

>  <r_lp_Energy>  (300) 
37.718

>  <b_lp_Chiralities_Consistent>  (300) 
1

>  <s_lp_Variant>  (300) 
95:0-1

>  <s_i_glide_gridfile>  (300) 
pfpi4k_grid

>  <i_i_glide_lignum>  (300) 
6

>  <i_i_glide_rotatable_bonds>  (300) 
1

>  <r_i_docking_score>  (300) 
-3.14094

>  <r_i_glide_ligand_efficiency>  (300) 
-0.157047

>  <r_i_glide_ligand_efficiency_sa>  (300) 
-0.426291

>  <r_i_glide_ligand_efficiency_ln>  (300) 
-0.786073

>  <r_i_glide_gscore>  (300) 
-3.14094

>  <r_i_glide_lipo>  (300) 
-0.346376

>  <r_i_glide_hbond>  (300) 
0

>  <r_i_glide_metal>  (300) 
-0

>  <r_i_glide_rewards>  (300) 
-1.54491

>  <r_i_glide_evdw>  (300) 
-21.3387

>  <r_i_glide_ecoul>  (300) 
-0.967089

>  <r_i_glide_erotb>  (300) 
0

>  <r_i_glide_esite>  (300) 
-0.0376517

>  <r_i_glide_emodel>  (300) 
-26.966

>  <r_i_glide_energy>  (300) 
-22.3058

>  <r_i_glide_einternal>  (300) 
0.342554

>  <r_i_glide_intrahb_reward>  (300) 
-0

>  <i_i_glide_confnum>  (300) 
1

>  <i_i_glide_posenum>  (300) 
23

>  <r_i_glide_eff_state_penalty>  (300) 
0

>  <ligand_id>  (300) 
95

>  <original_smiles>  (300) 
CC12CN=CCC1=CCC1C2CCC2(C)C(O)CCC12

>  <smiles>  (300) 
[H]OC1([H])C([H])([H])C([H])([H])C2([H])C3([H])C([H])([H])C([H])=C4C([H])=C([H])N([H])C([H])([H])C4(C([H])([H])[H])C3([H])C([H])([H])C([H])([H])C12C([H])([H])[H]

$$$$
96:0:0
     RDKit          3D

 70 75  0  0  1  0  0  0  0  0999 V2000
    2.1865   -9.4383    1.9641 C   0  0  0  0  0  0  0  0  0  0  0  0
    1.9132   -8.1644    2.7899 C   0  0  2  0  0  0  0  0  0  0  0  0
    1.5582   -8.5576    4.2555 C   0  0  0  0  0  0  0  0  0  0  0  0
    0.2099   -9.3159    4.4024 C   0  0  0  0  0  0  0  0  0  0  0  0
   -0.9302   -8.6268    3.6310 C   0  0  0  0  0  0  0  0  0  0  0  0
   -2.0145   -8.3209    4.1158 O   0  0  0  0  0  0  0  0  0  0  0  0
   -0.6039   -8.2997    2.1954 C   0  0  0  0  0  0  0  0  0  0  0  0
    0.6761   -7.4741    2.2178 C   0  0  0  0  0  0  0  0  0  0  0  0
    0.5915   -6.1689    1.9819 C   0  0  0  0  0  0  0  0  0  0  0  0
    1.6848   -5.1629    2.2434 C   0  0  0  0  0  0  0  0  0  0  0  0
    2.7932   -5.7254    3.1606 C   0  0  1  0  0  0  0  0  0  0  0  0
    3.1394   -7.1795    2.7535 C   0  0  2  0  0  0  0  0  0  0  0  0
    3.8956   -7.1134    1.4260 C   0  0  0  0  0  0  0  0  0  0  0  0
    4.7746   -6.1351    1.1332 C   0  0  0  0  0  0  0  0  0  0  0  0
    5.1266   -4.9952    2.0735 C   0  0  2  0  0  0  0  0  0  0  0  0
    6.4131   -5.4933    2.7552 C   0  0  0  0  0  0  0  0  0  0  0  0
    4.0780   -4.8342    3.2260 C   0  0  1  0  0  0  0  0  0  0  0  0
    3.8222   -3.3482    3.2917 C   0  0  0  0  0  0  0  0  0  0  0  0
    4.5063   -2.6632    2.3890 C   0  0  0  0  0  0  0  0  0  0  0  0
    4.5332   -1.1545    2.2260 C   0  0  1  0  0  0  0  0  0  0  0  0
    5.7740   -0.6311    2.6268 O   0  0  0  0  0  0  0  0  0  0  0  0
    4.2810   -0.7695    0.7620 C   0  0  0  0  0  0  0  0  0  0  0  0
    5.1405   -1.5551   -0.2782 C   0  0  2  0  0  0  0  0  0  0  0  0
    6.4711   -1.1318   -0.1068 O   0  0  0  0  0  0  0  0  0  0  0  0
    4.7732   -1.1137   -1.7135 C   0  0  0  0  0  0  0  0  0  0  0  0
    3.4156   -1.6660   -2.1792 C   0  0  1  0  0  0  0  0  0  0  0  0
    3.2525   -1.4137   -3.5611 O   0  0  0  0  0  0  0  0  0  0  0  0
    3.2759   -3.1754   -1.9470 C   0  0  0  0  0  0  0  0  0  0  0  0
    3.6154   -3.5632   -0.5059 C   0  0  0  0  0  0  0  0  0  0  0  0
    5.0426   -3.1385   -0.0530 C   0  0  1  0  0  0  0  0  0  0  0  0
    6.0655   -3.8359   -0.9762 C   0  0  0  0  0  0  0  0  0  0  0  0
    5.3334   -3.5363    1.4655 C   0  0  2  0  0  0  0  0  0  0  0  0
    6.6200   -3.2111    1.6481 F   0  0  0  0  0  0  0  0  0  0  0  0
    3.1577   -9.8526    2.2121 H   0  0  0  0  0  0  0  0  0  0  0  0
    2.1459   -9.2244    0.8939 H   0  0  0  0  0  0  0  0  0  0  0  0
    1.4339  -10.2043    2.1350 H   0  0  0  0  0  0  0  0  0  0  0  0
    2.3797   -9.1358    4.6813 H   0  0  0  0  0  0  0  0  0  0  0  0
    1.4667   -7.6600    4.8611 H   0  0  0  0  0  0  0  0  0  0  0  0
    0.3188  -10.3401    4.0435 H   0  0  0  0  0  0  0  0  0  0  0  0
   -0.0630   -9.4078    5.4488 H   0  0  0  0  0  0  0  0  0  0  0  0
   -0.5051   -9.2562    1.6863 H   0  0  0  0  0  0  0  0  0  0  0  0
   -1.4415   -7.7390    1.7724 H   0  0  0  0  0  0  0  0  0  0  0  0
   -0.3648   -5.8533    1.6260 H   0  0  0  0  0  0  0  0  0  0  0  0
    2.0755   -4.8923    1.2734 H   0  0  0  0  0  0  0  0  0  0  0  0
    1.2483   -4.2806    2.7076 H   0  0  0  0  0  0  0  0  0  0  0  0
    2.3685   -5.7325    4.1748 H   0  0  0  0  0  0  0  0  0  0  0  0
    3.8615   -7.5512    3.4688 H   0  0  0  0  0  0  0  0  0  0  0  0
    3.7822   -7.9191    0.7169 H   0  0  0  0  0  0  0  0  0  0  0  0
    5.3621   -6.2405    0.2365 H   0  0  0  0  0  0  0  0  0  0  0  0
    6.6313   -4.8074    3.5814 H   0  0  0  0  0  0  0  0  0  0  0  0
    7.2663   -5.5484    2.0630 H   0  0  0  0  0  0  0  0  0  0  0  0
    6.2985   -6.4881    3.2058 H   0  0  0  0  0  0  0  0  0  0  0  0
    4.5406   -5.0671    4.1906 H   0  0  0  0  0  0  0  0  0  0  0  0
    3.1849   -2.8948    4.0234 H   0  0  0  0  0  0  0  0  0  0  0  0
    3.7520   -0.7242    2.8475 H   0  0  0  0  0  0  0  0  0  0  0  0
    5.8012   -0.6221    3.5734 H   0  0  0  0  0  0  0  0  0  0  0  0
    3.2174   -0.9374    0.5567 H   0  0  0  0  0  0  0  0  0  0  0  0
    4.4244    0.3075    0.6284 H   0  0  0  0  0  0  0  0  0  0  0  0
    6.6547   -1.1788    0.8278 H   0  0  0  0  0  0  0  0  0  0  0  0
    4.7498   -0.0322   -1.7872 H   0  0  0  0  0  0  0  0  0  0  0  0
    5.5338   -1.4416   -2.4061 H   0  0  0  0  0  0  0  0  0  0  0  0
    2.6124   -1.1483   -1.6494 H   0  0  0  0  0  0  0  0  0  0  0  0
    2.3405   -1.5729   -3.7807 H   0  0  0  0  0  0  0  0  0  0  0  0
    2.2528   -3.4751   -2.1652 H   0  0  0  0  0  0  0  0  0  0  0  0
    3.9095   -3.7106   -2.6530 H   0  0  0  0  0  0  0  0  0  0  0  0
    2.8674   -3.1421    0.1640 H   0  0  0  0  0  0  0  0  0  0  0  0
    3.5153   -4.6401   -0.4516 H   0  0  0  0  0  0  0  0  0  0  0  0
    5.7763   -4.8556   -1.1523 H   0  0  0  0  0  0  0  0  0  0  0  0
    7.0746   -3.8264   -0.5718 H   0  0  0  0  0  0  0  0  0  0  0  0
    6.1212   -3.3866   -1.9576 H   0  0  0  0  0  0  0  0  0  0  0  0
  2  1  1  6
  1 34  1  0
  1 35  1  0
  1 36  1  0
  2  8  1  0
  2 12  1  0
  2  3  1  0
  3  4  1  0
  3 37  1  0
  3 38  1  0
  4  5  1  0
  4 39  1  0
  4 40  1  0
  5  6  2  0
  5  7  1  0
  7  8  1  0
  7 41  1  0
  7 42  1  0
  8  9  2  0
  9 10  1  0
  9 43  1  0
 10 11  1  0
 10 44  1  0
 10 45  1  0
 11 17  1  0
 11 12  1  0
 11 46  1  1
 12 13  1  0
 12 47  1  1
 13 14  2  0
 13 48  1  0
 14 15  1  0
 14 49  1  0
 15 32  1  0
 15 16  1  1
 15 17  1  0
 16 50  1  0
 16 51  1  0
 16 52  1  0
 17 18  1  0
 17 53  1  1
 18 19  2  0
 18 54  1  0
 19 32  1  0
 19 20  1  0
 20 21  1  0
 20 22  1  0
 20 55  1  1
 21 56  1  0
 22 23  1  0
 22 57  1  0
 22 58  1  0
 23 30  1  0
 23 24  1  1
 23 25  1  0
 24 59  1  0
 25 26  1  0
 25 60  1  0
 25 61  1  0
 26 27  1  0
 26 28  1  0
 26 62  1  1
 27 63  1  0
 28 29  1  0
 28 64  1  0
 28 65  1  0
 29 30  1  0
 29 66  1  0
 29 67  1  0
 30 31  1  6
 30 32  1  0
 31 68  1  0
 31 69  1  0
 31 70  1  0
 32 33  1  1
M  END
>  <i_m_ct_stereo_status>  (301) 
1

>  <s_m_source_file>  (301) 
/var/tmp/pbs.5076255.sched01/tmparsu8qf0/123n9qi1oz7.sdf

>  <i_m_source_file_index>  (301) 
7

>  <i_lp_mmshare_version>  (301) 
48012

>  <i_f3d_flags>  (301) 
0

>  <s_epik_input>  (301) 
W0NIMl0xW0NIMl1DKD1PKVtDSDJdQyhbQ0BdMTJbQ0gzXSk9W0NIXVtDSDJdW0NASF0zW0NAQEhdMltDSF09W0NIXVtDQF00KFtDSDNdKVtDQEhdM1tDSF09QzVbQ0BdNChGKVtDQF02KFtDSDNdKVtDQF0oW09IXSkoW0NIMl1bQ0BASF01W09IXSlbQ0gyXVtDQEBIXShbT0hdKVtDSDJdW0NIMl02

>  <s_epik_cmdline>  (301) 
J2VwaWtfcHl0aG9uJywgJy1waHQnLCAnMi4wJywgJy1waCcsICc3LjAnLCAnLXRuJywgJzgnLCAnLW1hJywgJzIwMCcsICctaW1hZScsICc8aW5maWxlLm1hZT4nLCAnLW9tYWUnLCAnPG91dGZpbGUubWFlPic=

>  <r_lp_tautomer_probability>  (301) 
1

>  <r_epik_Ionization_Penalty>  (301) 
1.06627e-06

>  <r_epik_Ionization_Penalty_Charging>  (301) 
0

>  <r_epik_Ionization_Penalty_Neutral>  (301) 
1.06627e-06

>  <r_epik_State_Penalty>  (301) 
-0

>  <r_epik_Charging_Adjusted_Penalty>  (301) 
0

>  <i_epik_Tot_Q>  (301) 
0

>  <i_epik_Tot_abs_Q>  (301) 
0

>  <s_lp_Force_Field>  (301) 
OPLS3e

>  <r_lp_Energy>  (301) 
65.6595

>  <b_lp_Chiralities_Consistent>  (301) 
1

>  <s_lp_Variant>  (301) 
96:0-1

>  <s_i_glide_gridfile>  (301) 
pfpi4k_grid

>  <i_i_glide_lignum>  (301) 
7

>  <i_i_glide_rotatable_bonds>  (301) 
3

>  <r_i_docking_score>  (301) 
-3.75616

>  <r_i_glide_ligand_efficiency>  (301) 
-0.113823

>  <r_i_glide_ligand_efficiency_sa>  (301) 
-0.365091

>  <r_i_glide_ligand_efficiency_ln>  (301) 
-0.83535

>  <r_i_glide_gscore>  (301) 
-3.75616

>  <r_i_glide_lipo>  (301) 
-0.585594

>  <r_i_glide_hbond>  (301) 
0

>  <r_i_glide_metal>  (301) 
-0

>  <r_i_glide_rewards>  (301) 
-0.855427

>  <r_i_glide_evdw>  (301) 
-31.3102

>  <r_i_glide_ecoul>  (301) 
-4.51006

>  <r_i_glide_erotb>  (301) 
0

>  <r_i_glide_esite>  (301) 
-0.073114

>  <r_i_glide_emodel>  (301) 
-49.7979

>  <r_i_glide_energy>  (301) 
-35.8203

>  <r_i_glide_einternal>  (301) 
0.771497

>  <r_i_glide_intrahb_reward>  (301) 
-0.5

>  <i_i_glide_confnum>  (301) 
1

>  <i_i_glide_posenum>  (301) 
40

>  <r_i_glide_eff_state_penalty>  (301) 
0

>  <ligand_id>  (301) 
96

>  <original_smiles>  (301) 
CC12CCC(=O)CC1=CCC1C2C=CC2(C)C1C=C1C(O)CC3(O)CC(O)CCC3(C)C12F

>  <smiles>  (301) 
[H]OC1([H])C2=C([H])C3([H])C4([H])C([H])([H])C([H])=C5C([H])([H])C(=O)C([H])([H])C([H])([H])C5(C([H])([H])[H])C4([H])C([H])=C([H])C3(C([H])([H])[H])C2(F)C2(C([H])([H])[H])C([H])([H])C([H])([H])C([H])(O[H])C([H])([H])C2(O[H])C1([H])[H]

$$$$
96:0:1
     RDKit          3D

 70 75  0  0  1  0  0  0  0  0999 V2000
    4.7332   -1.7130    1.6239 C   0  0  0  0  0  0  0  0  0  0  0  0
    4.9688   -3.0526    0.8677 C   0  0  2  0  0  0  0  0  0  0  0  0
    6.1897   -2.8583   -0.0793 C   0  0  0  0  0  0  0  0  0  0  0  0
    5.9553   -1.8580   -1.2429 C   0  0  0  0  0  0  0  0  0  0  0  0
    4.6187   -2.0574   -1.9468 C   0  0  0  0  0  0  0  0  0  0  0  0
    4.5297   -1.9858   -3.1773 O   0  0  0  0  0  0  0  0  0  0  0  0
    3.4151   -2.2857   -1.0505 C   0  0  0  0  0  0  0  0  0  0  0  0
    3.7850   -3.3662   -0.0488 C   0  0  0  0  0  0  0  0  0  0  0  0
    3.2038   -4.5762   -0.0931 C   0  0  0  0  0  0  0  0  0  0  0  0
    3.6619   -5.7885    0.6921 C   0  0  0  0  0  0  0  0  0  0  0  0
    5.0882   -5.6351    1.2692 C   0  0  1  0  0  0  0  0  0  0  0  0
    5.2554   -4.2283    1.8822 C   0  0  2  0  0  0  0  0  0  0  0  0
    4.4856   -4.1939    3.1956 C   0  0  0  0  0  0  0  0  0  0  0  0
    4.4119   -5.2463    4.0292 C   0  0  0  0  0  0  0  0  0  0  0  0
    5.0821   -6.5916    3.7853 C   0  0  2  0  0  0  0  0  0  0  0  0
    6.3789   -6.5304    4.6383 C   0  0  0  0  0  0  0  0  0  0  0  0
    5.5257   -6.7472    2.2801 C   0  0  1  0  0  0  0  0  0  0  0  0
    5.0819   -8.1373    1.9189 C   0  0  0  0  0  0  0  0  0  0  0  0
    4.4639   -8.7755    2.9147 C   0  0  0  0  0  0  0  0  0  0  0  0
    3.9327  -10.1952    2.8723 C   0  0  1  0  0  0  0  0  0  0  0  0
    4.7495  -11.0535    3.6423 O   0  0  0  0  0  0  0  0  0  0  0  0
    2.4714  -10.2437    3.3404 C   0  0  0  0  0  0  0  0  0  0  0  0
    2.1778   -9.4498    4.6503 C   0  0  2  0  0  0  0  0  0  0  0  0
    2.7388  -10.1329    5.7575 O   0  0  0  0  0  0  0  0  0  0  0  0
    0.6578   -9.5422    4.9539 C   0  0  0  0  0  0  0  0  0  0  0  0
   -0.1982   -8.6696    4.0199 C   0  0  1  0  0  0  0  0  0  0  0  0
   -1.5227   -8.6396    4.4989 O   0  0  0  0  0  0  0  0  0  0  0  0
    0.3154   -7.2255    3.9462 C   0  0  0  0  0  0  0  0  0  0  0  0
    1.8150   -7.1732    3.6078 C   0  0  0  0  0  0  0  0  0  0  0  0
    2.7247   -7.9532    4.6017 C   0  0  1  0  0  0  0  0  0  0  0  0
    2.5795   -7.3072    6.0128 C   0  0  0  0  0  0  0  0  0  0  0  0
    4.2621   -7.9334    4.1558 C   0  0  2  0  0  0  0  0  0  0  0  0
    4.9226   -8.5242    5.1545 F   0  0  0  0  0  0  0  0  0  0  0  0
    5.4960   -1.5557    2.3865 H   0  0  0  0  0  0  0  0  0  0  0  0
    3.7549   -1.6908    2.1029 H   0  0  0  0  0  0  0  0  0  0  0  0
    4.7534   -0.8428    0.9698 H   0  0  0  0  0  0  0  0  0  0  0  0
    7.0698   -2.5457    0.4871 H   0  0  0  0  0  0  0  0  0  0  0  0
    6.4534   -3.8126   -0.5413 H   0  0  0  0  0  0  0  0  0  0  0  0
    5.9686   -0.8323   -0.8674 H   0  0  0  0  0  0  0  0  0  0  0  0
    6.7590   -1.9391   -1.9762 H   0  0  0  0  0  0  0  0  0  0  0  0
    3.1435   -1.3621   -0.5461 H   0  0  0  0  0  0  0  0  0  0  0  0
    2.5550   -2.5782   -1.6466 H   0  0  0  0  0  0  0  0  0  0  0  0
    2.3964   -4.7442   -0.7932 H   0  0  0  0  0  0  0  0  0  0  0  0
    2.9219   -5.9517    1.4669 H   0  0  0  0  0  0  0  0  0  0  0  0
    3.6401   -6.6470    0.0190 H   0  0  0  0  0  0  0  0  0  0  0  0
    5.7588   -5.7115    0.4128 H   0  0  0  0  0  0  0  0  0  0  0  0
    6.2965   -4.1244    2.1850 H   0  0  0  0  0  0  0  0  0  0  0  0
    4.0247   -3.2701    3.5012 H   0  0  0  0  0  0  0  0  0  0  0  0
    3.9204   -5.1163    4.9729 H   0  0  0  0  0  0  0  0  0  0  0  0
    7.0045   -7.4140    4.4984 H   0  0  0  0  0  0  0  0  0  0  0  0
    6.1485   -6.4500    5.7019 H   0  0  0  0  0  0  0  0  0  0  0  0
    6.9877   -5.6631    4.3753 H   0  0  0  0  0  0  0  0  0  0  0  0
    6.6177   -6.7752    2.2366 H   0  0  0  0  0  0  0  0  0  0  0  0
    5.3083   -8.5856    0.9630 H   0  0  0  0  0  0  0  0  0  0  0  0
    3.9982  -10.5505    1.8469 H   0  0  0  0  0  0  0  0  0  0  0  0
    4.5882  -11.9418    3.3716 H   0  0  0  0  0  0  0  0  0  0  0  0
    1.8897   -9.8123    2.5226 H   0  0  0  0  0  0  0  0  0  0  0  0
    2.1289  -11.2777    3.4053 H   0  0  0  0  0  0  0  0  0  0  0  0
    2.2948  -10.9592    5.8927 H   0  0  0  0  0  0  0  0  0  0  0  0
    0.3188  -10.5789    4.8857 H   0  0  0  0  0  0  0  0  0  0  0  0
    0.4577   -9.2716    5.9908 H   0  0  0  0  0  0  0  0  0  0  0  0
   -0.2150   -9.1056    3.0168 H   0  0  0  0  0  0  0  0  0  0  0  0
   -1.7877   -9.5542    4.7105 H   0  0  0  0  0  0  0  0  0  0  0  0
   -0.2488   -6.6885    3.1848 H   0  0  0  0  0  0  0  0  0  0  0  0
    0.1268   -6.7060    4.8869 H   0  0  0  0  0  0  0  0  0  0  0  0
    1.9432   -7.5696    2.6010 H   0  0  0  0  0  0  0  0  0  0  0  0
    2.0954   -6.1261    3.5632 H   0  0  0  0  0  0  0  0  0  0  0  0
    2.5764   -6.2249    5.9844 H   0  0  0  0  0  0  0  0  0  0  0  0
    3.3633   -7.6225    6.7008 H   0  0  0  0  0  0  0  0  0  0  0  0
    1.6395   -7.5673    6.4870 H   0  0  0  0  0  0  0  0  0  0  0  0
  2  1  1  1
  1 34  1  0
  1 35  1  0
  1 36  1  0
  2  8  1  0
  2 12  1  0
  2  3  1  0
  3  4  1  0
  3 37  1  0
  3 38  1  0
  4  5  1  0
  4 39  1  0
  4 40  1  0
  5  6  2  0
  5  7  1  0
  7  8  1  0
  7 41  1  0
  7 42  1  0
  8  9  2  0
  9 10  1  0
  9 43  1  0
 10 11  1  0
 10 44  1  0
 10 45  1  0
 11 17  1  0
 11 12  1  0
 11 46  1  6
 12 13  1  0
 12 47  1  1
 13 14  2  0
 13 48  1  0
 14 15  1  0
 14 49  1  0
 15 32  1  0
 15 16  1  1
 15 17  1  0
 16 50  1  0
 16 51  1  0
 16 52  1  0
 17 18  1  0
 17 53  1  1
 18 19  2  0
 18 54  1  0
 19 32  1  0
 19 20  1  0
 20 21  1  0
 20 22  1  0
 20 55  1  6
 21 56  1  0
 22 23  1  0
 22 57  1  0
 22 58  1  0
 23 30  1  0
 23 24  1  1
 23 25  1  0
 24 59  1  0
 25 26  1  0
 25 60  1  0
 25 61  1  0
 26 27  1  0
 26 28  1  0
 26 62  1  6
 27 63  1  0
 28 29  1  0
 28 64  1  0
 28 65  1  0
 29 30  1  0
 29 66  1  0
 29 67  1  0
 30 31  1  1
 30 32  1  0
 31 68  1  0
 31 69  1  0
 31 70  1  0
 32 33  1  1
M  END
>  <i_m_ct_stereo_status>  (302) 
1

>  <s_m_source_file>  (302) 
/var/tmp/pbs.5076255.sched01/tmparsu8qf0/123n9qi1oz7.sdf

>  <i_m_source_file_index>  (302) 
7

>  <i_lp_mmshare_version>  (302) 
48012

>  <i_f3d_flags>  (302) 
0

>  <s_epik_input>  (302) 
W0NIMl0xW0NIMl1DKD1PKVtDSDJdQyhbQ0BdMTJbQ0gzXSk9W0NIXVtDSDJdW0NASF0zW0NAQEhdMltDSF09W0NIXVtDQF00KFtDSDNdKVtDQEhdM1tDSF09QzVbQ0BdNChGKVtDQF02KFtDSDNdKVtDQF0oW09IXSkoW0NIMl1bQ0BASF01W09IXSlbQ0gyXVtDQEBIXShbT0hdKVtDSDJdW0NIMl02

>  <s_epik_cmdline>  (302) 
J2VwaWtfcHl0aG9uJywgJy1waHQnLCAnMi4wJywgJy1waCcsICc3LjAnLCAnLXRuJywgJzgnLCAnLW1hJywgJzIwMCcsICctaW1hZScsICc8aW5maWxlLm1hZT4nLCAnLW9tYWUnLCAnPG91dGZpbGUubWFlPic=

>  <r_lp_tautomer_probability>  (302) 
1

>  <r_epik_Ionization_Penalty>  (302) 
1.06627e-06

>  <r_epik_Ionization_Penalty_Charging>  (302) 
0

>  <r_epik_Ionization_Penalty_Neutral>  (302) 
1.06627e-06

>  <r_epik_State_Penalty>  (302) 
-0

>  <r_epik_Charging_Adjusted_Penalty>  (302) 
0

>  <i_epik_Tot_Q>  (302) 
0

>  <i_epik_Tot_abs_Q>  (302) 
0

>  <s_lp_Force_Field>  (302) 
OPLS3e

>  <r_lp_Energy>  (302) 
65.6595

>  <b_lp_Chiralities_Consistent>  (302) 
1

>  <s_lp_Variant>  (302) 
96:0-1

>  <s_i_glide_gridfile>  (302) 
pfpi4k_grid

>  <i_i_glide_lignum>  (302) 
7

>  <i_i_glide_rotatable_bonds>  (302) 
3

>  <r_i_docking_score>  (302) 
-3.6544

>  <r_i_glide_ligand_efficiency>  (302) 
-0.110739

>  <r_i_glide_ligand_efficiency_sa>  (302) 
-0.3552

>  <r_i_glide_ligand_efficiency_ln>  (302) 
-0.812719

>  <r_i_glide_gscore>  (302) 
-3.6544

>  <r_i_glide_lipo>  (302) 
-0.317926

>  <r_i_glide_hbond>  (302) 
-0.16

>  <r_i_glide_metal>  (302) 
-0

>  <r_i_glide_rewards>  (302) 
-0.295981

>  <r_i_glide_evdw>  (302) 
-29.2941

>  <r_i_glide_ecoul>  (302) 
-9.34228

>  <r_i_glide_erotb>  (302) 
0

>  <r_i_glide_esite>  (302) 
-0.0144423

>  <r_i_glide_emodel>  (302) 
-47.6573

>  <r_i_glide_energy>  (302) 
-38.6364

>  <r_i_glide_einternal>  (302) 
1.46613

>  <r_i_glide_intrahb_reward>  (302) 
-0

>  <i_i_glide_confnum>  (302) 
2

>  <i_i_glide_posenum>  (302) 
3

>  <r_i_glide_eff_state_penalty>  (302) 
0

>  <ligand_id>  (302) 
96

>  <original_smiles>  (302) 
CC12CCC(=O)CC1=CCC1C2C=CC2(C)C1C=C1C(O)CC3(O)CC(O)CCC3(C)C12F

>  <smiles>  (302) 
[H]OC1([H])C2=C([H])C3([H])C4([H])C([H])([H])C([H])=C5C([H])([H])C(=O)C([H])([H])C([H])([H])C5(C([H])([H])[H])C4([H])C([H])=C([H])C3(C([H])([H])[H])C2(F)C2(C([H])([H])[H])C([H])([H])C([H])([H])C([H])(O[H])C([H])([H])C2(O[H])C1([H])[H]

$$$$
96:0:2
     RDKit          3D

 70 75  0  0  1  0  0  0  0  0999 V2000
    2.1455   -9.4364    1.8404 C   0  0  0  0  0  0  0  0  0  0  0  0
    1.8922   -8.1677    2.6780 C   0  0  2  0  0  0  0  0  0  0  0  0
    1.5668   -8.5880    4.1416 C   0  0  0  0  0  0  0  0  0  0  0  0
    0.2259   -9.3631    4.3129 C   0  0  0  0  0  0  0  0  0  0  0  0
   -0.9433   -8.6925    3.5774 C   0  0  0  0  0  0  0  0  0  0  0  0
   -2.0463   -8.5346    4.0779 O   0  0  0  0  0  0  0  0  0  0  0  0
   -0.6554   -8.2682    2.1589 C   0  0  0  0  0  0  0  0  0  0  0  0
    0.6385   -7.4744    2.1722 C   0  0  0  0  0  0  0  0  0  0  0  0
    0.5905   -6.1656    1.9581 C   0  0  0  0  0  0  0  0  0  0  0  0
    1.7094   -5.1677    2.1970 C   0  0  0  0  0  0  0  0  0  0  0  0
    2.8255   -5.7495    3.0838 C   0  0  1  0  0  0  0  0  0  0  0  0
    3.1411   -7.1989    2.6412 C   0  0  2  0  0  0  0  0  0  0  0  0
    3.8787   -7.1219    1.3023 C   0  0  0  0  0  0  0  0  0  0  0  0
    4.7603   -6.1586    1.0152 C   0  0  0  0  0  0  0  0  0  0  0  0
    5.1521   -5.0366    1.9732 C   0  0  2  0  0  0  0  0  0  0  0  0
    6.4574   -5.5648    2.6111 C   0  0  0  0  0  0  0  0  0  0  0  0
    4.1158   -4.8827    3.1475 C   0  0  1  0  0  0  0  0  0  0  0  0
    3.8723   -3.3972    3.2286 C   0  0  0  0  0  0  0  0  0  0  0  0
    4.5665   -2.6998    2.3290 C   0  0  0  0  0  0  0  0  0  0  0  0
    4.5752   -1.1910    2.1834 C   0  0  1  0  0  0  0  0  0  0  0  0
    5.8134   -0.6596    2.5842 O   0  0  0  0  0  0  0  0  0  0  0  0
    4.3156   -0.7843    0.7283 C   0  0  0  0  0  0  0  0  0  0  0  0
    5.1470   -1.5704   -0.3243 C   0  0  2  0  0  0  0  0  0  0  0  0
    6.4910   -1.1652   -0.1748 O   0  0  0  0  0  0  0  0  0  0  0  0
    4.7655   -1.0879   -1.7463 C   0  0  0  0  0  0  0  0  0  0  0  0
    3.3976   -1.6003   -2.1989 C   0  0  1  0  0  0  0  0  0  0  0  0
    3.2209   -1.2860   -3.5631 O   0  0  0  0  0  0  0  0  0  0  0  0
    3.2452   -3.1134   -2.0024 C   0  0  0  0  0  0  0  0  0  0  0  0
    3.6040   -3.5452   -0.5702 C   0  0  0  0  0  0  0  0  0  0  0  0
    5.0433   -3.1458   -0.1353 C   0  0  1  0  0  0  0  0  0  0  0  0
    6.0546   -3.8385   -1.0852 C   0  0  0  0  0  0  0  0  0  0  0  0
    5.3577   -3.5640    1.3722 C   0  0  2  0  0  0  0  0  0  0  0  0
    6.6456   -3.2563    1.5406 F   0  0  0  0  0  0  0  0  0  0  0  0
    3.1209   -9.8742    2.0614 H   0  0  0  0  0  0  0  0  0  0  0  0
    2.0968   -9.2086    0.7759 H   0  0  0  0  0  0  0  0  0  0  0  0
    1.3842  -10.2003    2.0065 H   0  0  0  0  0  0  0  0  0  0  0  0
    2.3914   -9.1828    4.5503 H   0  0  0  0  0  0  0  0  0  0  0  0
    1.4921   -7.7010    4.7715 H   0  0  0  0  0  0  0  0  0  0  0  0
    0.3226  -10.3825    3.9366 H   0  0  0  0  0  0  0  0  0  0  0  0
   -0.0332   -9.4550    5.3655 H   0  0  0  0  0  0  0  0  0  0  0  0
   -0.5888   -9.1589    1.5548 H   0  0  0  0  0  0  0  0  0  0  0  0
   -1.4853   -7.6728    1.7770 H   0  0  0  0  0  0  0  0  0  0  0  0
   -0.3775   -5.8302    1.6626 H   0  0  0  0  0  0  0  0  0  0  0  0
    2.0754   -4.8780    1.2143 H   0  0  0  0  0  0  0  0  0  0  0  0
    1.2856   -4.2792    2.6795 H   0  0  0  0  0  0  0  0  0  0  0  0
    2.4094   -5.7732    4.0956 H   0  0  0  0  0  0  0  0  0  0  0  0
    3.8708   -7.6027    3.3418 H   0  0  0  0  0  0  0  0  0  0  0  0
    3.7453   -7.9124    0.5847 H   0  0  0  0  0  0  0  0  0  0  0  0
    5.3239   -6.2391    0.1049 H   0  0  0  0  0  0  0  0  0  0  0  0
    6.7585   -4.9164    3.4279 H   0  0  0  0  0  0  0  0  0  0  0  0
    7.2742   -5.6311    1.8864 H   0  0  0  0  0  0  0  0  0  0  0  0
    6.3254   -6.5532    3.0571 H   0  0  0  0  0  0  0  0  0  0  0  0
    4.5969   -5.1401    4.0919 H   0  0  0  0  0  0  0  0  0  0  0  0
    3.2538   -2.9483    3.9896 H   0  0  0  0  0  0  0  0  0  0  0  0
    3.8121   -0.7602    2.8328 H   0  0  0  0  0  0  0  0  0  0  0  0
    5.8852   -0.7349    3.5270 H   0  0  0  0  0  0  0  0  0  0  0  0
    3.2525   -0.9362    0.5471 H   0  0  0  0  0  0  0  0  0  0  0  0
    4.4672    0.2896    0.6195 H   0  0  0  0  0  0  0  0  0  0  0  0
    6.6951   -1.2345    0.7543 H   0  0  0  0  0  0  0  0  0  0  0  0
    4.7627    0.0002   -1.7961 H   0  0  0  0  0  0  0  0  0  0  0  0
    5.5142   -1.3997   -2.4628 H   0  0  0  0  0  0  0  0  0  0  0  0
    2.6172   -1.1031   -1.6433 H   0  0  0  0  0  0  0  0  0  0  0  0
    2.9051   -0.3880   -3.6198 H   0  0  0  0  0  0  0  0  0  0  0  0
    2.2104   -3.3908   -2.2043 H   0  0  0  0  0  0  0  0  0  0  0  0
    3.8501   -3.6550   -2.7253 H   0  0  0  0  0  0  0  0  0  0  0  0
    2.8736   -3.1208    0.1184 H   0  0  0  0  0  0  0  0  0  0  0  0
    3.4829   -4.6234   -0.5285 H   0  0  0  0  0  0  0  0  0  0  0  0
    5.8040   -4.8691   -1.2660 H   0  0  0  0  0  0  0  0  0  0  0  0
    7.0744   -3.8257   -0.7018 H   0  0  0  0  0  0  0  0  0  0  0  0
    6.0863   -3.3744   -2.0681 H   0  0  0  0  0  0  0  0  0  0  0  0
  2  1  1  6
  1 34  1  0
  1 35  1  0
  1 36  1  0
  2  8  1  0
  2 12  1  0
  2  3  1  0
  3  4  1  0
  3 37  1  0
  3 38  1  0
  4  5  1  0
  4 39  1  0
  4 40  1  0
  5  6  2  0
  5  7  1  0
  7  8  1  0
  7 41  1  0
  7 42  1  0
  8  9  2  0
  9 10  1  0
  9 43  1  0
 10 11  1  0
 10 44  1  0
 10 45  1  0
 11 17  1  0
 11 12  1  0
 11 46  1  1
 12 13  1  0
 12 47  1  1
 13 14  2  0
 13 48  1  0
 14 15  1  0
 14 49  1  0
 15 32  1  0
 15 16  1  1
 15 17  1  0
 16 50  1  0
 16 51  1  0
 16 52  1  0
 17 18  1  0
 17 53  1  1
 18 19  2  0
 18 54  1  0
 19 32  1  0
 19 20  1  0
 20 21  1  0
 20 22  1  0
 20 55  1  1
 21 56  1  0
 22 23  1  0
 22 57  1  0
 22 58  1  0
 23 30  1  0
 23 24  1  1
 23 25  1  0
 24 59  1  0
 25 26  1  0
 25 60  1  0
 25 61  1  0
 26 27  1  0
 26 28  1  0
 26 62  1  1
 27 63  1  0
 28 29  1  0
 28 64  1  0
 28 65  1  0
 29 30  1  0
 29 66  1  0
 29 67  1  0
 30 31  1  6
 30 32  1  0
 31 68  1  0
 31 69  1  0
 31 70  1  0
 32 33  1  1
M  END
>  <i_m_ct_stereo_status>  (303) 
1

>  <s_m_source_file>  (303) 
/var/tmp/pbs.5076255.sched01/tmparsu8qf0/123n9qi1oz7.sdf

>  <i_m_source_file_index>  (303) 
7

>  <i_lp_mmshare_version>  (303) 
48012

>  <i_f3d_flags>  (303) 
0

>  <s_epik_input>  (303) 
W0NIMl0xW0NIMl1DKD1PKVtDSDJdQyhbQ0BdMTJbQ0gzXSk9W0NIXVtDSDJdW0NASF0zW0NAQEhdMltDSF09W0NIXVtDQF00KFtDSDNdKVtDQEhdM1tDSF09QzVbQ0BdNChGKVtDQF02KFtDSDNdKVtDQF0oW09IXSkoW0NIMl1bQ0BASF01W09IXSlbQ0gyXVtDQEBIXShbT0hdKVtDSDJdW0NIMl02

>  <s_epik_cmdline>  (303) 
J2VwaWtfcHl0aG9uJywgJy1waHQnLCAnMi4wJywgJy1waCcsICc3LjAnLCAnLXRuJywgJzgnLCAnLW1hJywgJzIwMCcsICctaW1hZScsICc8aW5maWxlLm1hZT4nLCAnLW9tYWUnLCAnPG91dGZpbGUubWFlPic=

>  <r_lp_tautomer_probability>  (303) 
1

>  <r_epik_Ionization_Penalty>  (303) 
1.06627e-06

>  <r_epik_Ionization_Penalty_Charging>  (303) 
0

>  <r_epik_Ionization_Penalty_Neutral>  (303) 
1.06627e-06

>  <r_epik_State_Penalty>  (303) 
-0

>  <r_epik_Charging_Adjusted_Penalty>  (303) 
0

>  <i_epik_Tot_Q>  (303) 
0

>  <i_epik_Tot_abs_Q>  (303) 
0

>  <s_lp_Force_Field>  (303) 
OPLS3e

>  <r_lp_Energy>  (303) 
65.6595

>  <b_lp_Chiralities_Consistent>  (303) 
1

>  <s_lp_Variant>  (303) 
96:0-1

>  <s_i_glide_gridfile>  (303) 
pfpi4k_grid

>  <i_i_glide_lignum>  (303) 
7

>  <i_i_glide_rotatable_bonds>  (303) 
3

>  <r_i_docking_score>  (303) 
-3.6223

>  <r_i_glide_ligand_efficiency>  (303) 
-0.109767

>  <r_i_glide_ligand_efficiency_sa>  (303) 
-0.35208

>  <r_i_glide_ligand_efficiency_ln>  (303) 
-0.805581

>  <r_i_glide_gscore>  (303) 
-3.6223

>  <r_i_glide_lipo>  (303) 
-0.643835

>  <r_i_glide_hbond>  (303) 
0

>  <r_i_glide_metal>  (303) 
-0

>  <r_i_glide_rewards>  (303) 
-0.861845

>  <r_i_glide_evdw>  (303) 
-28.7117

>  <r_i_glide_ecoul>  (303) 
-4.0468

>  <r_i_glide_erotb>  (303) 
0

>  <r_i_glide_esite>  (303) 
-0.0740165

>  <r_i_glide_emodel>  (303) 
-46.4118

>  <r_i_glide_energy>  (303) 
-32.7585

>  <r_i_glide_einternal>  (303) 
0.999996

>  <r_i_glide_intrahb_reward>  (303) 
-0.5

>  <i_i_glide_confnum>  (303) 
2

>  <i_i_glide_posenum>  (303) 
22

>  <r_i_glide_eff_state_penalty>  (303) 
0

>  <ligand_id>  (303) 
96

>  <original_smiles>  (303) 
CC12CCC(=O)CC1=CCC1C2C=CC2(C)C1C=C1C(O)CC3(O)CC(O)CCC3(C)C12F

>  <smiles>  (303) 
[H]OC1([H])C2=C([H])C3([H])C4([H])C([H])([H])C([H])=C5C([H])([H])C(=O)C([H])([H])C([H])([H])C5(C([H])([H])[H])C4([H])C([H])=C([H])C3(C([H])([H])[H])C2(F)C2(C([H])([H])[H])C([H])([H])C([H])([H])C([H])(O[H])C([H])([H])C2(O[H])C1([H])[H]

$$$$
97:0:0
     RDKit          3D

 33 37  0  0  1  0  0  0  0  0999 V2000
    7.1368   -4.2461    0.8144 C   0  0  0  0  0  0  0  0  0  0  0  0
    5.5989   -4.1280    0.9659 C   0  0  1  0  0  0  0  0  0  0  0  0
    4.8849   -4.6960   -0.3122 C   0  0  1  0  0  0  0  0  0  0  0  0
    3.6496   -5.4885    0.2188 C   0  0  0  0  0  0  0  0  0  0  0  0
    3.9736   -5.8086    1.6646 C   0  0  1  0  0  0  0  0  0  0  0  0
    5.2629   -6.4024    1.9281 O   0  0  0  0  0  0  0  0  0  0  0  0
    5.1244   -4.9847    2.1106 C   0  0  1  0  0  0  0  0  0  0  0  0
    4.6077   -3.4604   -1.1354 C   0  0  0  0  0  0  0  0  0  0  0  0
    4.2658   -3.3968   -2.5034 C   0  0  0  0  0  0  0  0  0  0  0  0
    4.1405   -2.1184   -3.0556 C   0  0  0  0  0  0  0  0  0  0  0  0
    4.3915   -0.9575   -2.3240 C   0  0  0  0  0  0  0  0  0  0  0  0
    4.7468   -1.0225   -0.9552 C   0  0  0  0  0  0  0  0  0  0  0  0
    4.8154   -2.2949   -0.3805 C   0  0  0  0  0  0  0  0  0  0  0  0
    5.1592   -2.6187    1.0590 C   0  0  1  0  0  0  0  0  0  0  0  0
    4.0958   -2.2682    1.9626 O   0  0  0  0  0  0  0  0  0  0  0  0
    2.8185   -2.6756    1.4008 O   0  0  0  0  0  0  0  0  0  0  0  0
    4.1970    0.1134   -3.1148 O   0  0  0  0  0  0  0  0  0  0  0  0
    3.6507   -0.3736   -4.3096 C   0  0  0  0  0  0  0  0  0  0  0  0
    3.7772   -1.7708   -4.3103 O   0  0  0  0  0  0  0  0  0  0  0  0
    7.4944   -3.6826   -0.0527 H   0  0  0  0  0  0  0  0  0  0  0  0
    7.4541   -5.2820    0.6774 H   0  0  0  0  0  0  0  0  0  0  0  0
    7.6864   -3.8562    1.6733 H   0  0  0  0  0  0  0  0  0  0  0  0
    5.5409   -5.3838   -0.8417 H   0  0  0  0  0  0  0  0  0  0  0  0
    2.7356   -4.8953    0.1763 H   0  0  0  0  0  0  0  0  0  0  0  0
    3.4922   -6.4259   -0.3182 H   0  0  0  0  0  0  0  0  0  0  0  0
    3.1689   -6.0653    2.3586 H   0  0  0  0  0  0  0  0  0  0  0  0
    5.2781   -4.6508    3.1437 H   0  0  0  0  0  0  0  0  0  0  0  0
    4.0913   -4.2831   -3.0987 H   0  0  0  0  0  0  0  0  0  0  0  0
    4.9286   -0.1289   -0.3789 H   0  0  0  0  0  0  0  0  0  0  0  0
    6.0059   -2.0105    1.3642 H   0  0  0  0  0  0  0  0  0  0  0  0
    2.6895   -2.0237    0.7185 H   0  0  0  0  0  0  0  0  0  0  0  0
    2.5893   -0.1101   -4.3406 H   0  0  0  0  0  0  0  0  0  0  0  0
    4.1545    0.0775   -5.1615 H   0  0  0  0  0  0  0  0  0  0  0  0
  2  1  1  6
  1 20  1  0
  1 21  1  0
  1 22  1  0
  2  7  1  0
  2 14  1  0
  2  3  1  0
  3  4  1  0
  3  8  1  0
  3 23  1  6
  4  5  1  0
  4 24  1  0
  4 25  1  0
  5  7  1  0
  5  6  1  0
  5 26  1  1
  6  7  1  0
  7 27  1  1
  8 13  2  0
  8  9  1  0
  9 10  2  0
  9 28  1  0
 10 19  1  0
 10 11  1  0
 11 12  2  0
 11 17  1  0
 12 13  1  0
 12 29  1  0
 13 14  1  0
 14 15  1  0
 14 30  1  1
 15 16  1  0
 16 31  1  0
 17 18  1  0
 18 19  1  0
 18 32  1  0
 18 33  1  0
M  END
>  <i_m_ct_stereo_status>  (304) 
1

>  <s_m_source_file>  (304) 
/var/tmp/pbs.5076255.sched01/tmparsu8qf0/123n9qi1oz7.sdf

>  <i_m_source_file_index>  (304) 
8

>  <i_lp_mmshare_version>  (304) 
48012

>  <i_f3d_flags>  (304) 
0

>  <s_epik_input>  (304) 
TzFbQ0BASF0yW0NASF0xW0NIMl1bQ0BIXShbQ0BdMjNbQ0gzXSljNGMoW0NASF0zT1tPSF0pW2NIXWM1YyhbY0hdNClPW0NIMl1PNQ==

>  <s_epik_cmdline>  (304) 
J2VwaWtfcHl0aG9uJywgJy1waHQnLCAnMi4wJywgJy1waCcsICc3LjAnLCAnLXRuJywgJzgnLCAnLW1hJywgJzIwMCcsICctaW1hZScsICc8aW5maWxlLm1hZT4nLCAnLW9tYWUnLCAnPG91dGZpbGUubWFlPic=

>  <r_lp_tautomer_probability>  (304) 
1

>  <r_epik_Ionization_Penalty>  (304) 
9.28798e-06

>  <r_epik_Ionization_Penalty_Charging>  (304) 
0

>  <r_epik_Ionization_Penalty_Neutral>  (304) 
9.28798e-06

>  <r_epik_State_Penalty>  (304) 
-0

>  <r_epik_Charging_Adjusted_Penalty>  (304) 
0

>  <i_epik_Tot_Q>  (304) 
0

>  <i_epik_Tot_abs_Q>  (304) 
0

>  <s_epik_Chemistry_Notes>  (304) 
This compound contains an acetal/aminal-like group ( X-CH(R)-Y where X, Y are N, S, or O) that may be acid/base labile, releasing an aldehyde.

>  <s_lp_Force_Field>  (304) 
OPLS3e

>  <r_lp_Energy>  (304) 
31.1295

>  <b_lp_Chiralities_Consistent>  (304) 
1

>  <s_lp_Variant>  (304) 
97:0-1

>  <s_i_glide_gridfile>  (304) 
pfpi4k_grid

>  <i_i_glide_lignum>  (304) 
8

>  <i_i_glide_rotatable_bonds>  (304) 
2

>  <r_i_docking_score>  (304) 
-4.07339

>  <r_i_glide_ligand_efficiency>  (304) 
-0.214389

>  <r_i_glide_ligand_efficiency_sa>  (304) 
-0.572076

>  <r_i_glide_ligand_efficiency_ln>  (304) 
-1.03269

>  <r_i_glide_gscore>  (304) 
-4.07339

>  <r_i_glide_lipo>  (304) 
-0.423379

>  <r_i_glide_hbond>  (304) 
-0.32

>  <r_i_glide_metal>  (304) 
-0

>  <r_i_glide_rewards>  (304) 
-2.05513

>  <r_i_glide_evdw>  (304) 
-24.1772

>  <r_i_glide_ecoul>  (304) 
-2.15935

>  <r_i_glide_erotb>  (304) 
0.257881

>  <r_i_glide_esite>  (304) 
0

>  <r_i_glide_emodel>  (304) 
-29.4279

>  <r_i_glide_energy>  (304) 
-26.3365

>  <r_i_glide_einternal>  (304) 
4.13695

>  <r_i_glide_intrahb_reward>  (304) 
-0

>  <i_i_glide_confnum>  (304) 
6

>  <i_i_glide_posenum>  (304) 
13

>  <r_i_glide_eff_state_penalty>  (304) 
0

>  <ligand_id>  (304) 
97

>  <original_smiles>  (304) 
CC12C(CC3OC31)c1cc3c(cc1C2OO)OCO3

>  <smiles>  (304) 
[H]OOC1([H])c2c([H])c3c(c([H])c2C2([H])C([H])([H])C4([H])OC4([H])C12C([H])([H])[H])OC([H])([H])O3

$$$$
97:0:1
     RDKit          3D

 33 37  0  0  1  0  0  0  0  0999 V2000
    7.4696   -4.1851    0.7183 C   0  0  0  0  0  0  0  0  0  0  0  0
    5.9465   -4.1136    0.9397 C   0  0  1  0  0  0  0  0  0  0  0  0
    5.1712   -4.7050   -0.2848 C   0  0  1  0  0  0  0  0  0  0  0  0
    3.9769   -5.5028    0.2951 C   0  0  0  0  0  0  0  0  0  0  0  0
    4.3861   -5.8575    1.7037 C   0  0  1  0  0  0  0  0  0  0  0  0
    5.6924   -6.4338    1.8829 O   0  0  0  0  0  0  0  0  0  0  0  0
    5.5433   -5.0191    2.0904 C   0  0  1  0  0  0  0  0  0  0  0  0
    4.7963   -3.4993   -1.1020 C   0  0  0  0  0  0  0  0  0  0  0  0
    4.4023   -3.4615   -2.4609 C   0  0  0  0  0  0  0  0  0  0  0  0
    4.2100   -2.1966   -3.0291 C   0  0  0  0  0  0  0  0  0  0  0  0
    4.4300   -1.0345   -2.3065 C   0  0  0  0  0  0  0  0  0  0  0  0
    4.8380   -1.0594   -0.9556 C   0  0  0  0  0  0  0  0  0  0  0  0
    5.0107   -2.3310   -0.3745 C   0  0  0  0  0  0  0  0  0  0  0  0
    5.4757   -2.6187    1.0282 C   0  0  1  0  0  0  0  0  0  0  0  0
    4.3750   -2.4510    1.9088 O   0  0  0  0  0  0  0  0  0  0  0  0
    4.8576   -2.3185    3.2735 O   0  0  0  0  0  0  0  0  0  0  0  0
    4.1791    0.0349   -3.1051 O   0  0  0  0  0  0  0  0  0  0  0  0
    3.6182   -0.4878   -4.2792 C   0  0  0  0  0  0  0  0  0  0  0  0
    3.8037   -1.8810   -4.2893 O   0  0  0  0  0  0  0  0  0  0  0  0
    7.7476   -3.6129   -0.1647 H   0  0  0  0  0  0  0  0  0  0  0  0
    7.8020   -5.2137    0.5676 H   0  0  0  0  0  0  0  0  0  0  0  0
    8.0207   -3.7805    1.5690 H   0  0  0  0  0  0  0  0  0  0  0  0
    5.8087   -5.3883   -0.8322 H   0  0  0  0  0  0  0  0  0  0  0  0
    3.0733   -4.8960    0.3381 H   0  0  0  0  0  0  0  0  0  0  0  0
    3.7525   -6.4006   -0.2800 H   0  0  0  0  0  0  0  0  0  0  0  0
    3.6246   -6.1475    2.4339 H   0  0  0  0  0  0  0  0  0  0  0  0
    5.7455   -4.7178    3.1182 H   0  0  0  0  0  0  0  0  0  0  0  0
    4.2629   -4.3587   -3.0437 H   0  0  0  0  0  0  0  0  0  0  0  0
    5.0196   -0.1584   -0.3877 H   0  0  0  0  0  0  0  0  0  0  0  0
    6.2829   -1.9329    1.2916 H   0  0  0  0  0  0  0  0  0  0  0  0
    4.7701   -3.2103    3.5774 H   0  0  0  0  0  0  0  0  0  0  0  0
    2.5485   -0.2668   -4.2755 H   0  0  0  0  0  0  0  0  0  0  0  0
    4.0614   -0.0193   -5.1578 H   0  0  0  0  0  0  0  0  0  0  0  0
  2  1  1  6
  1 20  1  0
  1 21  1  0
  1 22  1  0
  2  7  1  0
  2 14  1  0
  2  3  1  0
  3  4  1  0
  3  8  1  0
  3 23  1  6
  4  5  1  0
  4 24  1  0
  4 25  1  0
  5  7  1  0
  5  6  1  0
  5 26  1  1
  6  7  1  0
  7 27  1  1
  8 13  2  0
  8  9  1  0
  9 10  2  0
  9 28  1  0
 10 19  1  0
 10 11  1  0
 11 12  2  0
 11 17  1  0
 12 13  1  0
 12 29  1  0
 13 14  1  0
 14 15  1  0
 14 30  1  1
 15 16  1  0
 16 31  1  0
 17 18  1  0
 18 19  1  0
 18 32  1  0
 18 33  1  0
M  END
>  <i_m_ct_stereo_status>  (305) 
1

>  <s_m_source_file>  (305) 
/var/tmp/pbs.5076255.sched01/tmparsu8qf0/123n9qi1oz7.sdf

>  <i_m_source_file_index>  (305) 
8

>  <i_lp_mmshare_version>  (305) 
48012

>  <i_f3d_flags>  (305) 
0

>  <s_epik_input>  (305) 
TzFbQ0BASF0yW0NASF0xW0NIMl1bQ0BIXShbQ0BdMjNbQ0gzXSljNGMoW0NASF0zT1tPSF0pW2NIXWM1YyhbY0hdNClPW0NIMl1PNQ==

>  <s_epik_cmdline>  (305) 
J2VwaWtfcHl0aG9uJywgJy1waHQnLCAnMi4wJywgJy1waCcsICc3LjAnLCAnLXRuJywgJzgnLCAnLW1hJywgJzIwMCcsICctaW1hZScsICc8aW5maWxlLm1hZT4nLCAnLW9tYWUnLCAnPG91dGZpbGUubWFlPic=

>  <r_lp_tautomer_probability>  (305) 
1

>  <r_epik_Ionization_Penalty>  (305) 
9.28798e-06

>  <r_epik_Ionization_Penalty_Charging>  (305) 
0

>  <r_epik_Ionization_Penalty_Neutral>  (305) 
9.28798e-06

>  <r_epik_State_Penalty>  (305) 
-0

>  <r_epik_Charging_Adjusted_Penalty>  (305) 
0

>  <i_epik_Tot_Q>  (305) 
0

>  <i_epik_Tot_abs_Q>  (305) 
0

>  <s_epik_Chemistry_Notes>  (305) 
This compound contains an acetal/aminal-like group ( X-CH(R)-Y where X, Y are N, S, or O) that may be acid/base labile, releasing an aldehyde.

>  <s_lp_Force_Field>  (305) 
OPLS3e

>  <r_lp_Energy>  (305) 
31.1295

>  <b_lp_Chiralities_Consistent>  (305) 
1

>  <s_lp_Variant>  (305) 
97:0-1

>  <s_i_glide_gridfile>  (305) 
pfpi4k_grid

>  <i_i_glide_lignum>  (305) 
8

>  <i_i_glide_rotatable_bonds>  (305) 
2

>  <r_i_docking_score>  (305) 
-4.03192

>  <r_i_glide_ligand_efficiency>  (305) 
-0.212207

>  <r_i_glide_ligand_efficiency_sa>  (305) 
-0.566252

>  <r_i_glide_ligand_efficiency_ln>  (305) 
-1.02218

>  <r_i_glide_gscore>  (305) 
-4.03192

>  <r_i_glide_lipo>  (305) 
-0.551294

>  <r_i_glide_hbond>  (305) 
-0.32

>  <r_i_glide_metal>  (305) 
-0

>  <r_i_glide_rewards>  (305) 
-1.99112

>  <r_i_glide_evdw>  (305) 
-24.4727

>  <r_i_glide_ecoul>  (305) 
-1.35835

>  <r_i_glide_erotb>  (305) 
0.257881

>  <r_i_glide_esite>  (305) 
0

>  <r_i_glide_emodel>  (305) 
-31.787

>  <r_i_glide_energy>  (305) 
-25.831

>  <r_i_glide_einternal>  (305) 
0.248369

>  <r_i_glide_intrahb_reward>  (305) 
-0

>  <i_i_glide_confnum>  (305) 
3

>  <i_i_glide_posenum>  (305) 
22

>  <r_i_glide_eff_state_penalty>  (305) 
0

>  <ligand_id>  (305) 
97

>  <original_smiles>  (305) 
CC12C(CC3OC31)c1cc3c(cc1C2OO)OCO3

>  <smiles>  (305) 
[H]OOC1([H])c2c([H])c3c(c([H])c2C2([H])C([H])([H])C4([H])OC4([H])C12C([H])([H])[H])OC([H])([H])O3

$$$$
97:0:2
     RDKit          3D

 33 37  0  0  1  0  0  0  0  0999 V2000
    7.4710   -4.1832    0.7202 C   0  0  0  0  0  0  0  0  0  0  0  0
    5.9450   -4.1209    0.9409 C   0  0  1  0  0  0  0  0  0  0  0  0
    5.1676   -4.7211   -0.2788 C   0  0  1  0  0  0  0  0  0  0  0  0
    3.9972   -5.5577    0.3034 C   0  0  0  0  0  0  0  0  0  0  0  0
    4.4030   -5.8519    1.7385 C   0  0  1  0  0  0  0  0  0  0  0  0
    5.7176   -6.4021    1.9208 O   0  0  0  0  0  0  0  0  0  0  0  0
    5.5524   -4.9932    2.1178 C   0  0  1  0  0  0  0  0  0  0  0  0
    4.8217   -3.5031   -1.1084 C   0  0  0  0  0  0  0  0  0  0  0  0
    4.4180   -3.4695   -2.4651 C   0  0  0  0  0  0  0  0  0  0  0  0
    4.2235   -2.2004   -3.0282 C   0  0  0  0  0  0  0  0  0  0  0  0
    4.4549   -1.0403   -2.3184 C   0  0  0  0  0  0  0  0  0  0  0  0
    4.8735   -1.0629   -0.9733 C   0  0  0  0  0  0  0  0  0  0  0  0
    5.0315   -2.3300   -0.3826 C   0  0  0  0  0  0  0  0  0  0  0  0
    5.4713   -2.6308    1.0389 C   0  0  1  0  0  0  0  0  0  0  0  0
    4.4428   -2.4142    2.0107 O   0  0  0  0  0  0  0  0  0  0  0  0
    3.1613   -2.8814    1.4755 O   0  0  0  0  0  0  0  0  0  0  0  0
    4.1984    0.0274   -3.1183 O   0  0  0  0  0  0  0  0  0  0  0  0
    3.6176   -0.4974   -4.2801 C   0  0  0  0  0  0  0  0  0  0  0  0
    3.8142   -1.8860   -4.2873 O   0  0  0  0  0  0  0  0  0  0  0  0
    7.7675   -3.6150   -0.1677 H   0  0  0  0  0  0  0  0  0  0  0  0
    7.8198   -5.2067    0.5752 H   0  0  0  0  0  0  0  0  0  0  0  0
    8.0304   -3.7725    1.5647 H   0  0  0  0  0  0  0  0  0  0  0  0
    5.8171   -5.4081   -0.8212 H   0  0  0  0  0  0  0  0  0  0  0  0
    3.0686   -4.9889    0.3052 H   0  0  0  0  0  0  0  0  0  0  0  0
    3.8544   -6.4889   -0.2536 H   0  0  0  0  0  0  0  0  0  0  0  0
    3.6466   -6.1584    2.4723 H   0  0  0  0  0  0  0  0  0  0  0  0
    5.7591   -4.6533    3.1424 H   0  0  0  0  0  0  0  0  0  0  0  0
    4.2535   -4.3664   -3.0353 H   0  0  0  0  0  0  0  0  0  0  0  0
    5.0496   -0.1583   -0.4202 H   0  0  0  0  0  0  0  0  0  0  0  0
    6.2942   -1.9738    1.3162 H   0  0  0  0  0  0  0  0  0  0  0  0
    3.2233   -3.8094    1.6078 H   0  0  0  0  0  0  0  0  0  0  0  0
    2.5442   -0.2811   -4.2616 H   0  0  0  0  0  0  0  0  0  0  0  0
    4.0573   -0.0362   -5.1648 H   0  0  0  0  0  0  0  0  0  0  0  0
  2  1  1  6
  1 20  1  0
  1 21  1  0
  1 22  1  0
  2  7  1  0
  2 14  1  0
  2  3  1  0
  3  4  1  0
  3  8  1  0
  3 23  1  6
  4  5  1  0
  4 24  1  0
  4 25  1  0
  5  7  1  0
  5  6  1  0
  5 26  1  1
  6  7  1  0
  7 27  1  1
  8 13  2  0
  8  9  1  0
  9 10  2  0
  9 28  1  0
 10 19  1  0
 10 11  1  0
 11 12  2  0
 11 17  1  0
 12 13  1  0
 12 29  1  0
 13 14  1  0
 14 15  1  0
 14 30  1  1
 15 16  1  0
 16 31  1  0
 17 18  1  0
 18 19  1  0
 18 32  1  0
 18 33  1  0
M  END
>  <i_m_ct_stereo_status>  (306) 
1

>  <s_m_source_file>  (306) 
/var/tmp/pbs.5076255.sched01/tmparsu8qf0/123n9qi1oz7.sdf

>  <i_m_source_file_index>  (306) 
8

>  <i_lp_mmshare_version>  (306) 
48012

>  <i_f3d_flags>  (306) 
0

>  <s_epik_input>  (306) 
TzFbQ0BASF0yW0NASF0xW0NIMl1bQ0BIXShbQ0BdMjNbQ0gzXSljNGMoW0NASF0zT1tPSF0pW2NIXWM1YyhbY0hdNClPW0NIMl1PNQ==

>  <s_epik_cmdline>  (306) 
J2VwaWtfcHl0aG9uJywgJy1waHQnLCAnMi4wJywgJy1waCcsICc3LjAnLCAnLXRuJywgJzgnLCAnLW1hJywgJzIwMCcsICctaW1hZScsICc8aW5maWxlLm1hZT4nLCAnLW9tYWUnLCAnPG91dGZpbGUubWFlPic=

>  <r_lp_tautomer_probability>  (306) 
1

>  <r_epik_Ionization_Penalty>  (306) 
9.28798e-06

>  <r_epik_Ionization_Penalty_Charging>  (306) 
0

>  <r_epik_Ionization_Penalty_Neutral>  (306) 
9.28798e-06

>  <r_epik_State_Penalty>  (306) 
-0

>  <r_epik_Charging_Adjusted_Penalty>  (306) 
0

>  <i_epik_Tot_Q>  (306) 
0

>  <i_epik_Tot_abs_Q>  (306) 
0

>  <s_epik_Chemistry_Notes>  (306) 
This compound contains an acetal/aminal-like group ( X-CH(R)-Y where X, Y are N, S, or O) that may be acid/base labile, releasing an aldehyde.

>  <s_lp_Force_Field>  (306) 
OPLS3e

>  <r_lp_Energy>  (306) 
31.1295

>  <b_lp_Chiralities_Consistent>  (306) 
1

>  <s_lp_Variant>  (306) 
97:0-1

>  <s_i_glide_gridfile>  (306) 
pfpi4k_grid

>  <i_i_glide_lignum>  (306) 
8

>  <i_i_glide_rotatable_bonds>  (306) 
2

>  <r_i_docking_score>  (306) 
-3.99554

>  <r_i_glide_ligand_efficiency>  (306) 
-0.210292

>  <r_i_glide_ligand_efficiency_sa>  (306) 
-0.561142

>  <r_i_glide_ligand_efficiency_ln>  (306) 
-1.01295

>  <r_i_glide_gscore>  (306) 
-3.99554

>  <r_i_glide_lipo>  (306) 
-0.558213

>  <r_i_glide_hbond>  (306) 
-0.32

>  <r_i_glide_metal>  (306) 
-0

>  <r_i_glide_rewards>  (306) 
-1.98596

>  <r_i_glide_evdw>  (306) 
-24.546

>  <r_i_glide_ecoul>  (306) 
-1.07961

>  <r_i_glide_erotb>  (306) 
0.257881

>  <r_i_glide_esite>  (306) 
0

>  <r_i_glide_emodel>  (306) 
-29.039

>  <r_i_glide_energy>  (306) 
-25.6256

>  <r_i_glide_einternal>  (306) 
3.99509

>  <r_i_glide_intrahb_reward>  (306) 
-0

>  <i_i_glide_confnum>  (306) 
2

>  <i_i_glide_posenum>  (306) 
19

>  <r_i_glide_eff_state_penalty>  (306) 
0

>  <ligand_id>  (306) 
97

>  <original_smiles>  (306) 
CC12C(CC3OC31)c1cc3c(cc1C2OO)OCO3

>  <smiles>  (306) 
[H]OOC1([H])c2c([H])c3c(c([H])c2C2([H])C([H])([H])C4([H])OC4([H])C12C([H])([H])[H])OC([H])([H])O3

$$$$
98:0:0
     RDKit          3D

 95102  0  0  1  0  0  0  0  0999 V2000
   -0.1418   -3.0202    6.9923 C   0  0  0  0  0  0  0  0  0  0  0  0
   -0.4699   -1.5544    6.5604 C   0  0  0  0  0  0  0  0  0  0  0  0
    0.4802   -0.7108    5.5929 C   0  0  2  0  0  0  0  0  0  0  0  0
    0.9607   -1.6459    4.4379 C   0  0  0  0  0  0  0  0  0  0  0  0
    2.1618   -2.4569    5.0058 C   0  0  2  0  0  0  0  0  0  0  0  0
    2.7114   -1.6660    6.2459 C   0  0  1  0  0  0  0  0  0  0  0  0
    4.2732   -1.4651    6.3738 C   0  0  0  0  0  0  0  0  0  0  0  0
    5.1819   -2.5409    5.7012 C   0  0  0  0  0  0  0  0  0  0  0  0
    4.3423   -3.5193    4.8993 C   0  0  2  0  0  0  0  0  0  0  0  0
    4.7646   -4.2929    3.7452 O   0  0  0  0  0  0  0  0  0  0  0  0
    3.4031   -4.0699    3.1973 C   0  0  2  0  0  0  0  0  0  0  0  0
    3.4131   -3.6780    1.7348 C   0  0  2  0  0  0  0  0  0  0  0  0
    4.0562   -4.7461    0.8071 C   0  0  1  0  0  0  0  0  0  0  0  0
    3.0459   -5.8051    0.3256 C   0  0  0  0  0  0  0  0  0  0  0  0
    4.7541   -4.0957   -0.4025 C   0  0  0  0  0  0  0  0  0  0  0  0
    5.8489   -3.1136    0.0366 C   0  0  0  0  0  0  0  0  0  0  0  0
    5.5564   -2.3650    1.3610 C   0  0  1  0  0  0  0  0  0  0  0  0
    6.1999   -1.0996    1.2847 O   0  0  0  0  0  0  0  0  0  0  0  0
    4.0421   -2.2559    1.6911 C   0  0  1  0  0  0  0  0  0  0  0  0
    3.2930   -1.3006    0.7391 C   0  0  0  0  0  0  0  0  0  0  0  0
    3.8183   -1.7061    3.1133 C   0  0  0  0  0  0  0  0  0  0  0  0
    3.9885   -0.5200    3.3979 O   0  0  0  0  0  0  0  0  0  0  0  0
    3.3090   -2.8210    4.0440 C   0  0  1  0  0  0  0  0  0  0  0  0
    1.8616   -0.3708    6.2301 C   0  0  2  0  0  0  0  0  0  0  0  0
    1.6669    0.4085    7.5289 C   0  0  0  0  0  0  0  0  0  0  0  0
    2.3585    0.2091    8.5344 O   0  0  0  0  0  0  0  0  0  0  0  0
    0.5295    1.4411    7.5325 C   0  0  0  0  0  0  0  0  0  0  0  0
    0.2849    1.8846    6.0832 C   0  0  0  0  0  0  0  0  0  0  0  0
    0.5862    3.1496    5.6406 C   0  0  0  0  0  0  0  0  0  0  0  0
    0.9790    4.2876    6.6027 C   0  0  1  0  0  0  0  0  0  0  0  0
    2.5058    4.4158    6.7524 C   0  0  0  0  0  0  0  0  0  0  0  0
    0.2340    5.6115    6.3070 C   0  0  1  0  0  0  0  0  0  0  0  0
    0.5907    6.7516    7.2776 C   0  0  0  0  0  0  0  0  0  0  0  0
    0.3787    6.0357    4.8441 C   0  0  0  0  0  0  0  0  0  0  0  0
   -0.1492    4.9262    3.9303 C   0  0  0  0  0  0  0  0  0  0  0  0
    0.5413    3.5497    4.1378 C   0  0  1  0  0  0  0  0  0  0  0  0
    1.9810    3.6137    3.5737 C   0  0  0  0  0  0  0  0  0  0  0  0
   -0.2405    2.5068    3.3103 C   0  0  0  0  0  0  0  0  0  0  0  0
    0.1385    1.0800    3.6971 C   0  0  0  0  0  0  0  0  0  0  0  0
   -0.1911    0.7080    5.1703 C   0  0  1  0  0  0  0  0  0  0  0  0
   -1.7477    0.7128    5.2610 C   0  0  0  0  0  0  0  0  0  0  0  0
   -1.0092   -3.4571    7.5595 H   0  0  0  0  0  0  0  0  0  0  0  0
    0.6791   -3.0413    7.7215 H   0  0  0  0  0  0  0  0  0  0  0  0
    0.0654   -3.6341    6.1571 H   0  0  0  0  0  0  0  0  0  0  0  0
   -1.4428   -1.6504    6.0796 H   0  0  0  0  0  0  0  0  0  0  0  0
   -0.5946   -0.9874    7.4872 H   0  0  0  0  0  0  0  0  0  0  0  0
    0.1620   -2.3056    4.0878 H   0  0  0  0  0  0  0  0  0  0  0  0
    1.2735   -1.0912    3.5526 H   0  0  0  0  0  0  0  0  0  0  0  0
    1.7757   -3.3673    5.3571 H   0  0  0  0  0  0  0  0  0  0  0  0
    2.4777   -2.2703    7.1421 H   0  0  0  0  0  0  0  0  0  0  0  0
    4.5438   -0.4559    6.0396 H   0  0  0  0  0  0  0  0  0  0  0  0
    4.4984   -1.4680    7.4366 H   0  0  0  0  0  0  0  0  0  0  0  0
    5.8280   -2.0051    5.0185 H   0  0  0  0  0  0  0  0  0  0  0  0
    5.8296   -3.0605    6.4156 H   0  0  0  0  0  0  0  0  0  0  0  0
    3.8456   -4.2270    5.5793 H   0  0  0  0  0  0  0  0  0  0  0  0
    2.7082   -4.8688    3.5064 H   0  0  0  0  0  0  0  0  0  0  0  0
    2.3950   -3.5681    1.4176 H   0  0  0  0  0  0  0  0  0  0  0  0
    4.8429   -5.2751    1.3602 H   0  0  0  0  0  0  0  0  0  0  0  0
    2.2690   -5.3742   -0.2987 H   0  0  0  0  0  0  0  0  0  0  0  0
    2.5693   -6.3253    1.1558 H   0  0  0  0  0  0  0  0  0  0  0  0
    3.5651   -6.5477   -0.2685 H   0  0  0  0  0  0  0  0  0  0  0  0
    5.1863   -4.8618   -1.0490 H   0  0  0  0  0  0  0  0  0  0  0  0
    4.0186   -3.5843   -1.0155 H   0  0  0  0  0  0  0  0  0  0  0  0
    6.7798   -3.6619    0.1616 H   0  0  0  0  0  0  0  0  0  0  0  0
    6.0243   -2.4164   -0.7785 H   0  0  0  0  0  0  0  0  0  0  0  0
    6.0356   -2.9198    2.1711 H   0  0  0  0  0  0  0  0  0  0  0  0
    7.1344   -1.2265    1.3392 H   0  0  0  0  0  0  0  0  0  0  0  0
    3.2707   -1.6657   -0.2896 H   0  0  0  0  0  0  0  0  0  0  0  0
    3.7580   -0.3073    0.7153 H   0  0  0  0  0  0  0  0  0  0  0  0
    2.2578   -1.1394    1.0407 H   0  0  0  0  0  0  0  0  0  0  0  0
    2.3716    0.3137    5.5573 H   0  0  0  0  0  0  0  0  0  0  0  0
   -0.3900    1.0204    7.9427 H   0  0  0  0  0  0  0  0  0  0  0  0
    0.8139    2.2325    8.2178 H   0  0  0  0  0  0  0  0  0  0  0  0
    0.6039    4.0395    7.5875 H   0  0  0  0  0  0  0  0  0  0  0  0
    2.9653    3.4346    6.8581 H   0  0  0  0  0  0  0  0  0  0  0  0
    2.7614    4.9903    7.6468 H   0  0  0  0  0  0  0  0  0  0  0  0
    2.9736    4.9130    5.9090 H   0  0  0  0  0  0  0  0  0  0  0  0
   -0.8262    5.4087    6.4728 H   0  0  0  0  0  0  0  0  0  0  0  0
    1.6187    7.0856    7.1449 H   0  0  0  0  0  0  0  0  0  0  0  0
    0.4605    6.4454    8.3156 H   0  0  0  0  0  0  0  0  0  0  0  0
   -0.0521    7.6176    7.1116 H   0  0  0  0  0  0  0  0  0  0  0  0
   -0.1648    6.9615    4.6614 H   0  0  0  0  0  0  0  0  0  0  0  0
    1.4124    6.2718    4.6137 H   0  0  0  0  0  0  0  0  0  0  0  0
   -1.2199    4.8215    4.1047 H   0  0  0  0  0  0  0  0  0  0  0  0
   -0.0489    5.2405    2.8917 H   0  0  0  0  0  0  0  0  0  0  0  0
    1.9843    3.6092    2.4839 H   0  0  0  0  0  0  0  0  0  0  0  0
    2.5808    2.7711    3.9081 H   0  0  0  0  0  0  0  0  0  0  0  0
    2.5109    4.5172    3.8635 H   0  0  0  0  0  0  0  0  0  0  0  0
   -1.3109    2.6611    3.3820 H   0  0  0  0  0  0  0  0  0  0  0  0
   -0.0270    2.6234    2.2498 H   0  0  0  0  0  0  0  0  0  0  0  0
   -0.3541    0.3978    3.0101 H   0  0  0  0  0  0  0  0  0  0  0  0
    1.2107    0.9875    3.5180 H   0  0  0  0  0  0  0  0  0  0  0  0
   -2.2088    0.0860    4.4976 H   0  0  0  0  0  0  0  0  0  0  0  0
   -2.1452    1.7144    5.1174 H   0  0  0  0  0  0  0  0  0  0  0  0
   -2.1330    0.4316    6.2367 H   0  0  0  0  0  0  0  0  0  0  0  0
  1  2  1  0
  1 42  1  0
  1 43  1  0
  1 44  1  0
  3  2  1  1
  2 45  1  0
  2 46  1  0
  3 24  1  0
  3 40  1  0
  3  4  1  0
  4  5  1  0
  4 47  1  0
  4 48  1  0
  5 23  1  0
  5  6  1  0
  5 49  1  1
  6  7  1  0
  6 24  1  0
  6 50  1  1
  7  8  1  0
  7 51  1  0
  7 52  1  0
  8  9  1  0
  8 53  1  0
  8 54  1  0
  9 23  1  0
  9 10  1  0
  9 55  1  1
 10 11  1  0
 11 23  1  0
 11 12  1  0
 11 56  1  6
 12 19  1  0
 12 13  1  0
 12 57  1  6
 13 14  1  0
 13 15  1  0
 13 58  1  1
 14 59  1  0
 14 60  1  0
 14 61  1  0
 15 16  1  0
 15 62  1  0
 15 63  1  0
 16 17  1  0
 16 64  1  0
 16 65  1  0
 17 18  1  0
 17 19  1  0
 17 66  1  1
 18 67  1  0
 19 20  1  6
 19 21  1  0
 20 68  1  0
 20 69  1  0
 20 70  1  0
 21 22  2  0
 23 21  1  6
 24 25  1  0
 24 71  1  6
 25 26  2  0
 25 27  1  0
 27 28  1  0
 27 72  1  0
 27 73  1  0
 28 40  1  0
 28 29  2  0
 29 36  1  0
 29 30  1  0
 30 31  1  0
 30 32  1  0
 30 74  1  1
 31 75  1  0
 31 76  1  0
 31 77  1  0
 32 33  1  0
 32 34  1  0
 32 78  1  6
 33 79  1  0
 33 80  1  0
 33 81  1  0
 34 35  1  0
 34 82  1  0
 34 83  1  0
 35 36  1  0
 35 84  1  0
 35 85  1  0
 36 37  1  6
 36 38  1  0
 37 86  1  0
 37 87  1  0
 37 88  1  0
 38 39  1  0
 38 89  1  0
 38 90  1  0
 39 40  1  0
 39 91  1  0
 39 92  1  0
 40 41  1  6
 41 93  1  0
 41 94  1  0
 41 95  1  0
M  END
>  <i_m_ct_stereo_status>  (307) 
1

>  <s_m_source_file>  (307) 
/var/tmp/pbs.5076255.sched01/tmparsu8qf0/123n9qi1oz7.sdf

>  <i_m_source_file_index>  (307) 
9

>  <i_lp_mmshare_version>  (307) 
48012

>  <i_f3d_flags>  (307) 
0

>  <s_epik_input>  (307) 
W0NIM11bQ0BIXTFbQ0BASF0oW0NIM10pW0NIMl1bQ0gyXVtDQF0oW0NIM10pKFtDSDJdW0NIMl0yKUMxPUMoW0NIMl1DMz1PKVtDQF0yKFtDSDNdKVtDQF0oW0NIMl00KShbQ0gyXVtDSDNdKVtDQEBIXTNbQ0BASF0oW0NAQEhdNFtDQEBdNTY3KVtDSDJdW0NIMl1bQ0BASF01T1tDQEBIXTZbQ0BIXThbQ0BAXShbQ0gzXSkoQzc9TylbQ0BIXShbT0hdKVtDSDJdW0NIMl1bQ0BASF04W0NIM10=

>  <s_epik_cmdline>  (307) 
J2VwaWtfcHl0aG9uJywgJy1waHQnLCAnMi4wJywgJy1waCcsICc3LjAnLCAnLXRuJywgJzgnLCAnLW1hJywgJzIwMCcsICctaW1hZScsICc8aW5maWxlLm1hZT4nLCAnLW9tYWUnLCAnPG91dGZpbGUubWFlPic=

>  <r_lp_tautomer_probability>  (307) 
1

>  <r_epik_Ionization_Penalty>  (307) 
2.82004e-07

>  <r_epik_Ionization_Penalty_Charging>  (307) 
0

>  <r_epik_Ionization_Penalty_Neutral>  (307) 
2.82004e-07

>  <r_epik_State_Penalty>  (307) 
-0

>  <r_epik_Charging_Adjusted_Penalty>  (307) 
0

>  <i_epik_Tot_Q>  (307) 
0

>  <i_epik_Tot_abs_Q>  (307) 
0

>  <s_lp_Force_Field>  (307) 
OPLS3e

>  <r_lp_Energy>  (307) 
110.713

>  <b_lp_Chiralities_Consistent>  (307) 
1

>  <s_lp_Variant>  (307) 
98:0-1

>  <s_i_glide_gridfile>  (307) 
pfpi4k_grid

>  <i_i_glide_lignum>  (307) 
9

>  <i_i_glide_rotatable_bonds>  (307) 
2

>  <r_i_docking_score>  (307) 
-1.43705

>  <r_i_glide_ligand_efficiency>  (307) 
-0.03505

>  <r_i_glide_ligand_efficiency_sa>  (307) 
-0.12086

>  <r_i_glide_ligand_efficiency_ln>  (307) 
-0.304875

>  <r_i_glide_gscore>  (307) 
-1.43705

>  <r_i_glide_lipo>  (307) 
-0.206913

>  <r_i_glide_hbond>  (307) 
0

>  <r_i_glide_metal>  (307) 
-0

>  <r_i_glide_rewards>  (307) 
0

>  <r_i_glide_evdw>  (307) 
-24.1913

>  <r_i_glide_ecoul>  (307) 
-0.134193

>  <r_i_glide_erotb>  (307) 
0

>  <r_i_glide_esite>  (307) 
-0.000443921

>  <r_i_glide_emodel>  (307) 
-22.3274

>  <r_i_glide_energy>  (307) 
-24.3255

>  <r_i_glide_einternal>  (307) 
4.77832

>  <r_i_glide_intrahb_reward>  (307) 
-0

>  <i_i_glide_confnum>  (307) 
2

>  <i_i_glide_posenum>  (307) 
1

>  <r_i_glide_eff_state_penalty>  (307) 
0

>  <ligand_id>  (307) 
98

>  <original_smiles>  (307) 
CCC12CC3C(CCC4OC5C6C(C)CCC(O)C6(C)C(=O)C435)C1C(=O)CC1=C3C(C)C(C)CCC3(C)CCC12C

>  <smiles>  (307) 
[H]OC1([H])C([H])([H])C([H])([H])C([H])(C([H])([H])[H])C2([H])C3([H])OC4([H])C([H])([H])C([H])([H])C5([H])C6([H])C(=O)C([H])([H])C7=C8C([H])(C([H])([H])[H])C([H])(C([H])([H])[H])C([H])([H])C([H])([H])C8(C([H])([H])[H])C([H])([H])C([H])([H])C7(C([H])([H])[H])C6(C([H])([H])C([H])([H])[H])C([H])([H])C5([H])C43C(=O)C12C([H])([H])[H]

$$$$
98:0:1
     RDKit          3D

 95102  0  0  1  0  0  0  0  0999 V2000
   -0.1079   -3.0848    7.0155 C   0  0  0  0  0  0  0  0  0  0  0  0
   -0.4526   -1.6330    6.5589 C   0  0  0  0  0  0  0  0  0  0  0  0
    0.4925   -0.7867    5.5910 C   0  0  2  0  0  0  0  0  0  0  0  0
    0.9731   -1.7204    4.4344 C   0  0  0  0  0  0  0  0  0  0  0  0
    2.1780   -2.5263    4.9970 C   0  0  2  0  0  0  0  0  0  0  0  0
    2.7270   -1.7390    6.2374 C   0  0  1  0  0  0  0  0  0  0  0  0
    4.2875   -1.5341    6.3644 C   0  0  0  0  0  0  0  0  0  0  0  0
    5.1960   -2.6092    5.6892 C   0  0  0  0  0  0  0  0  0  0  0  0
    4.3568   -3.5885    4.8886 C   0  0  2  0  0  0  0  0  0  0  0  0
    4.7797   -4.3597    3.7334 O   0  0  0  0  0  0  0  0  0  0  0  0
    3.4169   -4.1414    3.1886 C   0  0  2  0  0  0  0  0  0  0  0  0
    3.4213   -3.7496    1.7254 C   0  0  2  0  0  0  0  0  0  0  0  0
    4.0683   -4.8136    0.7954 C   0  0  1  0  0  0  0  0  0  0  0  0
    3.0583   -5.8712    0.3166 C   0  0  0  0  0  0  0  0  0  0  0  0
    4.7606   -4.1608   -0.4154 C   0  0  0  0  0  0  0  0  0  0  0  0
    5.8519   -3.1745    0.0220 C   0  0  0  0  0  0  0  0  0  0  0  0
    5.5584   -2.4358    1.3508 C   0  0  1  0  0  0  0  0  0  0  0  0
    6.2049   -1.1744    1.2947 O   0  0  0  0  0  0  0  0  0  0  0  0
    4.0447   -2.3262    1.6810 C   0  0  1  0  0  0  0  0  0  0  0  0
    3.2950   -1.3696    0.7298 C   0  0  0  0  0  0  0  0  0  0  0  0
    3.8299   -1.7784    3.1028 C   0  0  0  0  0  0  0  0  0  0  0  0
    4.0308   -0.5956    3.3809 O   0  0  0  0  0  0  0  0  0  0  0  0
    3.3211   -2.8917    4.0349 C   0  0  1  0  0  0  0  0  0  0  0  0
    1.8755   -0.4453    6.2256 C   0  0  2  0  0  0  0  0  0  0  0  0
    1.6823    0.3334    7.5251 C   0  0  0  0  0  0  0  0  0  0  0  0
    2.3775    0.1357    8.5285 O   0  0  0  0  0  0  0  0  0  0  0  0
    0.5436    1.3650    7.5297 C   0  0  0  0  0  0  0  0  0  0  0  0
    0.2935    1.8068    6.0817 C   0  0  0  0  0  0  0  0  0  0  0  0
    0.5930    3.0753    5.6372 C   0  0  0  0  0  0  0  0  0  0  0  0
    0.9857    4.2124    6.5999 C   0  0  1  0  0  0  0  0  0  0  0  0
    2.5133    4.3432    6.7466 C   0  0  0  0  0  0  0  0  0  0  0  0
    0.2379    5.5354    6.3066 C   0  0  1  0  0  0  0  0  0  0  0  0
    0.5952    6.6758    7.2766 C   0  0  0  0  0  0  0  0  0  0  0  0
    0.3728    5.9622    4.8434 C   0  0  0  0  0  0  0  0  0  0  0  0
   -0.1492    4.8492    3.9305 C   0  0  0  0  0  0  0  0  0  0  0  0
    0.5443    3.4743    4.1355 C   0  0  1  0  0  0  0  0  0  0  0  0
    1.9832    3.5414    3.5689 C   0  0  0  0  0  0  0  0  0  0  0  0
   -0.2361    2.4308    3.3064 C   0  0  0  0  0  0  0  0  0  0  0  0
    0.1441    1.0041    3.6951 C   0  0  0  0  0  0  0  0  0  0  0  0
   -0.1837    0.6318    5.1693 C   0  0  1  0  0  0  0  0  0  0  0  0
   -1.7382    0.6328    5.2632 C   0  0  0  0  0  0  0  0  0  0  0  0
   -0.9726   -3.5283    7.5778 H   0  0  0  0  0  0  0  0  0  0  0  0
    0.7065   -3.0825    7.7518 H   0  0  0  0  0  0  0  0  0  0  0  0
    0.1157   -3.7113    6.1914 H   0  0  0  0  0  0  0  0  0  0  0  0
   -1.4219   -1.7416    6.0734 H   0  0  0  0  0  0  0  0  0  0  0  0
   -0.5888   -1.0581    7.4788 H   0  0  0  0  0  0  0  0  0  0  0  0
    0.1755   -2.3814    4.0862 H   0  0  0  0  0  0  0  0  0  0  0  0
    1.2834   -1.1653    3.5486 H   0  0  0  0  0  0  0  0  0  0  0  0
    1.7944   -3.4433    5.3486 H   0  0  0  0  0  0  0  0  0  0  0  0
    2.4971   -2.3467    7.1319 H   0  0  0  0  0  0  0  0  0  0  0  0
    4.5593   -0.5253    6.0280 H   0  0  0  0  0  0  0  0  0  0  0  0
    4.5177   -1.5363    7.4266 H   0  0  0  0  0  0  0  0  0  0  0  0
    5.8289   -2.0684    5.0022 H   0  0  0  0  0  0  0  0  0  0  0  0
    5.8510   -3.1265    6.4011 H   0  0  0  0  0  0  0  0  0  0  0  0
    3.8665   -4.2974    5.5698 H   0  0  0  0  0  0  0  0  0  0  0  0
    2.7254   -4.9415    3.4975 H   0  0  0  0  0  0  0  0  0  0  0  0
    2.4009   -3.6410    1.4096 H   0  0  0  0  0  0  0  0  0  0  0  0
    4.8559   -5.3408    1.3471 H   0  0  0  0  0  0  0  0  0  0  0  0
    2.2777   -5.4403   -0.3041 H   0  0  0  0  0  0  0  0  0  0  0  0
    2.5852   -6.3935    1.1478 H   0  0  0  0  0  0  0  0  0  0  0  0
    3.5789   -6.6123   -0.2776 H   0  0  0  0  0  0  0  0  0  0  0  0
    5.1943   -4.9251   -1.0620 H   0  0  0  0  0  0  0  0  0  0  0  0
    4.0233   -3.6516   -1.0277 H   0  0  0  0  0  0  0  0  0  0  0  0
    6.7856   -3.7183    0.1469 H   0  0  0  0  0  0  0  0  0  0  0  0
    6.0297   -2.4732   -0.7904 H   0  0  0  0  0  0  0  0  0  0  0  0
    6.0456   -2.9942    2.1530 H   0  0  0  0  0  0  0  0  0  0  0  0
    6.1132   -0.7499    2.1365 H   0  0  0  0  0  0  0  0  0  0  0  0
    3.2734   -1.7354   -0.2985 H   0  0  0  0  0  0  0  0  0  0  0  0
    3.7592   -0.3764    0.7046 H   0  0  0  0  0  0  0  0  0  0  0  0
    2.2604   -1.2105    1.0330 H   0  0  0  0  0  0  0  0  0  0  0  0
    2.3831    0.2421    5.5524 H   0  0  0  0  0  0  0  0  0  0  0  0
   -0.3741    0.9439    7.9439 H   0  0  0  0  0  0  0  0  0  0  0  0
    0.8292    2.1562    8.2147 H   0  0  0  0  0  0  0  0  0  0  0  0
    0.6142    3.9638    7.5857 H   0  0  0  0  0  0  0  0  0  0  0  0
    2.9752    3.3626    6.8514 H   0  0  0  0  0  0  0  0  0  0  0  0
    2.7701    4.9180    7.6406 H   0  0  0  0  0  0  0  0  0  0  0  0
    2.9785    4.8418    5.9023 H   0  0  0  0  0  0  0  0  0  0  0  0
   -0.8216    5.3320    6.4744 H   0  0  0  0  0  0  0  0  0  0  0  0
    1.6224    7.0116    7.1421 H   0  0  0  0  0  0  0  0  0  0  0  0
    0.4679    6.3690    8.3149 H   0  0  0  0  0  0  0  0  0  0  0  0
   -0.0495    7.5406    7.1127 H   0  0  0  0  0  0  0  0  0  0  0  0
   -0.1964    6.8760    4.6642 H   0  0  0  0  0  0  0  0  0  0  0  0
    1.4077    6.2019    4.6109 H   0  0  0  0  0  0  0  0  0  0  0  0
   -1.2193    4.7431    4.1074 H   0  0  0  0  0  0  0  0  0  0  0  0
   -0.0519    5.1652    2.8922 H   0  0  0  0  0  0  0  0  0  0  0  0
    1.9846    3.5371    2.4789 H   0  0  0  0  0  0  0  0  0  0  0  0
    2.5853    2.6995    3.9023 H   0  0  0  0  0  0  0  0  0  0  0  0
    2.5120    4.4459    3.8578 H   0  0  0  0  0  0  0  0  0  0  0  0
   -1.3069    2.5826    3.3828 H   0  0  0  0  0  0  0  0  0  0  0  0
   -0.0269    2.5466    2.2436 H   0  0  0  0  0  0  0  0  0  0  0  0
   -0.3478    0.3204    3.0089 H   0  0  0  0  0  0  0  0  0  0  0  0
    1.2167    0.9133    3.5150 H   0  0  0  0  0  0  0  0  0  0  0  0
   -2.2033    0.0059    4.5001 H   0  0  0  0  0  0  0  0  0  0  0  0
   -2.1411    1.6342    5.1221 H   0  0  0  0  0  0  0  0  0  0  0  0
   -2.1228    0.3473    6.2392 H   0  0  0  0  0  0  0  0  0  0  0  0
  1  2  1  0
  1 42  1  0
  1 43  1  0
  1 44  1  0
  3  2  1  1
  2 45  1  0
  2 46  1  0
  3 24  1  0
  3 40  1  0
  3  4  1  0
  4  5  1  0
  4 47  1  0
  4 48  1  0
  5 23  1  0
  5  6  1  0
  5 49  1  1
  6  7  1  0
  6 24  1  0
  6 50  1  1
  7  8  1  0
  7 51  1  0
  7 52  1  0
  8  9  1  0
  8 53  1  0
  8 54  1  0
  9 23  1  0
  9 10  1  0
  9 55  1  1
 10 11  1  0
 11 23  1  0
 11 12  1  0
 11 56  1  6
 12 19  1  0
 12 13  1  0
 12 57  1  6
 13 14  1  0
 13 15  1  0
 13 58  1  1
 14 59  1  0
 14 60  1  0
 14 61  1  0
 15 16  1  0
 15 62  1  0
 15 63  1  0
 16 17  1  0
 16 64  1  0
 16 65  1  0
 17 18  1  0
 17 19  1  0
 17 66  1  1
 18 67  1  0
 19 20  1  6
 19 21  1  0
 20 68  1  0
 20 69  1  0
 20 70  1  0
 21 22  2  0
 23 21  1  6
 24 25  1  0
 24 71  1  6
 25 26  2  0
 25 27  1  0
 27 28  1  0
 27 72  1  0
 27 73  1  0
 28 40  1  0
 28 29  2  0
 29 36  1  0
 29 30  1  0
 30 31  1  0
 30 32  1  0
 30 74  1  1
 31 75  1  0
 31 76  1  0
 31 77  1  0
 32 33  1  0
 32 34  1  0
 32 78  1  6
 33 79  1  0
 33 80  1  0
 33 81  1  0
 34 35  1  0
 34 82  1  0
 34 83  1  0
 35 36  1  0
 35 84  1  0
 35 85  1  0
 36 37  1  6
 36 38  1  0
 37 86  1  0
 37 87  1  0
 37 88  1  0
 38 39  1  0
 38 89  1  0
 38 90  1  0
 39 40  1  0
 39 91  1  0
 39 92  1  0
 40 41  1  6
 41 93  1  0
 41 94  1  0
 41 95  1  0
M  END
>  <i_m_ct_stereo_status>  (308) 
1

>  <s_m_source_file>  (308) 
/var/tmp/pbs.5076255.sched01/tmparsu8qf0/123n9qi1oz7.sdf

>  <i_m_source_file_index>  (308) 
9

>  <i_lp_mmshare_version>  (308) 
48012

>  <i_f3d_flags>  (308) 
0

>  <s_epik_input>  (308) 
W0NIM11bQ0BIXTFbQ0BASF0oW0NIM10pW0NIMl1bQ0gyXVtDQF0oW0NIM10pKFtDSDJdW0NIMl0yKUMxPUMoW0NIMl1DMz1PKVtDQF0yKFtDSDNdKVtDQF0oW0NIMl00KShbQ0gyXVtDSDNdKVtDQEBIXTNbQ0BASF0oW0NAQEhdNFtDQEBdNTY3KVtDSDJdW0NIMl1bQ0BASF01T1tDQEBIXTZbQ0BIXThbQ0BAXShbQ0gzXSkoQzc9TylbQ0BIXShbT0hdKVtDSDJdW0NIMl1bQ0BASF04W0NIM10=

>  <s_epik_cmdline>  (308) 
J2VwaWtfcHl0aG9uJywgJy1waHQnLCAnMi4wJywgJy1waCcsICc3LjAnLCAnLXRuJywgJzgnLCAnLW1hJywgJzIwMCcsICctaW1hZScsICc8aW5maWxlLm1hZT4nLCAnLW9tYWUnLCAnPG91dGZpbGUubWFlPic=

>  <r_lp_tautomer_probability>  (308) 
1

>  <r_epik_Ionization_Penalty>  (308) 
2.82004e-07

>  <r_epik_Ionization_Penalty_Charging>  (308) 
0

>  <r_epik_Ionization_Penalty_Neutral>  (308) 
2.82004e-07

>  <r_epik_State_Penalty>  (308) 
-0

>  <r_epik_Charging_Adjusted_Penalty>  (308) 
0

>  <i_epik_Tot_Q>  (308) 
0

>  <i_epik_Tot_abs_Q>  (308) 
0

>  <s_lp_Force_Field>  (308) 
OPLS3e

>  <r_lp_Energy>  (308) 
110.713

>  <b_lp_Chiralities_Consistent>  (308) 
1

>  <s_lp_Variant>  (308) 
98:0-1

>  <s_i_glide_gridfile>  (308) 
pfpi4k_grid

>  <i_i_glide_lignum>  (308) 
9

>  <i_i_glide_rotatable_bonds>  (308) 
2

>  <r_i_docking_score>  (308) 
-1.42967

>  <r_i_glide_ligand_efficiency>  (308) 
-0.03487

>  <r_i_glide_ligand_efficiency_sa>  (308) 
-0.120239

>  <r_i_glide_ligand_efficiency_ln>  (308) 
-0.303309

>  <r_i_glide_gscore>  (308) 
-1.42967

>  <r_i_glide_lipo>  (308) 
-0.210002

>  <r_i_glide_hbond>  (308) 
0

>  <r_i_glide_metal>  (308) 
-0

>  <r_i_glide_rewards>  (308) 
0

>  <r_i_glide_evdw>  (308) 
-24.3008

>  <r_i_glide_ecoul>  (308) 
-0.0271942

>  <r_i_glide_erotb>  (308) 
0

>  <r_i_glide_esite>  (308) 
-0.000550282

>  <r_i_glide_emodel>  (308) 
-22.5357

>  <r_i_glide_energy>  (308) 
-24.328

>  <r_i_glide_einternal>  (308) 
4.67821

>  <r_i_glide_intrahb_reward>  (308) 
-0

>  <i_i_glide_confnum>  (308) 
2

>  <i_i_glide_posenum>  (308) 
12

>  <r_i_glide_eff_state_penalty>  (308) 
0

>  <ligand_id>  (308) 
98

>  <original_smiles>  (308) 
CCC12CC3C(CCC4OC5C6C(C)CCC(O)C6(C)C(=O)C435)C1C(=O)CC1=C3C(C)C(C)CCC3(C)CCC12C

>  <smiles>  (308) 
[H]OC1([H])C([H])([H])C([H])([H])C([H])(C([H])([H])[H])C2([H])C3([H])OC4([H])C([H])([H])C([H])([H])C5([H])C6([H])C(=O)C([H])([H])C7=C8C([H])(C([H])([H])[H])C([H])(C([H])([H])[H])C([H])([H])C([H])([H])C8(C([H])([H])[H])C([H])([H])C([H])([H])C7(C([H])([H])[H])C6(C([H])([H])C([H])([H])[H])C([H])([H])C5([H])C43C(=O)C12C([H])([H])[H]

$$$$
98:0:2
     RDKit          3D

 95102  0  0  1  0  0  0  0  0999 V2000
    4.7835   -6.4243    9.6159 C   0  0  0  0  0  0  0  0  0  0  0  0
    3.3603   -6.2194    9.0480 C   0  0  0  0  0  0  0  0  0  0  0  0
    3.2005   -5.5224    7.6360 C   0  0  2  0  0  0  0  0  0  0  0  0
    3.9739   -4.1679    7.6855 C   0  0  0  0  0  0  0  0  0  0  0  0
    3.0724   -3.1657    8.4407 C   0  0  2  0  0  0  0  0  0  0  0  0
    1.6103   -3.7173    8.4174 C   0  0  1  0  0  0  0  0  0  0  0  0
    0.4547   -2.7089    8.0163 C   0  0  0  0  0  0  0  0  0  0  0  0
    0.6742   -1.1785    8.3160 C   0  0  0  0  0  0  0  0  0  0  0  0
    2.0903   -0.9587    8.8420 C   0  0  2  0  0  0  0  0  0  0  0  0
    2.8488    0.2390    8.7347 O   0  0  0  0  0  0  0  0  0  0  0  0
    4.0247   -0.5927    8.5532 C   0  0  2  0  0  0  0  0  0  0  0  0
    4.9246   -0.0970    7.4086 C   0  0  2  0  0  0  0  0  0  0  0  0
    5.4961    1.3323    7.6357 C   0  0  1  0  0  0  0  0  0  0  0  0
    6.8201    1.3207    8.4290 C   0  0  0  0  0  0  0  0  0  0  0  0
    5.6826    2.0811    6.3128 C   0  0  0  0  0  0  0  0  0  0  0  0
    4.3610    2.2114    5.5378 C   0  0  0  0  0  0  0  0  0  0  0  0
    3.3905    1.0168    5.7140 C   0  0  1  0  0  0  0  0  0  0  0  0
    2.6309    0.9114    4.5214 O   0  0  0  0  0  0  0  0  0  0  0  0
    4.0883   -0.3251    6.1018 C   0  0  1  0  0  0  0  0  0  0  0  0
    4.9473   -0.8837    4.9419 C   0  0  0  0  0  0  0  0  0  0  0  0
    3.0717   -1.4309    6.5319 C   0  0  0  0  0  0  0  0  0  0  0  0
    2.3991   -2.0015    5.6631 O   0  0  0  0  0  0  0  0  0  0  0  0
    3.1293   -1.6955    8.0199 C   0  0  1  0  0  0  0  0  0  0  0  0
    1.7573   -4.9526    7.4862 C   0  0  2  0  0  0  0  0  0  0  0  0
    0.7139   -6.0658    7.5992 C   0  0  0  0  0  0  0  0  0  0  0  0
   -0.3699   -5.9051    8.1683 O   0  0  0  0  0  0  0  0  0  0  0  0
    1.1092   -7.4078    6.9678 C   0  0  0  0  0  0  0  0  0  0  0  0
    2.1356   -7.1347    5.8507 C   0  0  0  0  0  0  0  0  0  0  0  0
    1.8470   -7.3194    4.5223 C   0  0  0  0  0  0  0  0  0  0  0  0
    0.5629   -8.0257    4.0500 C   0  0  1  0  0  0  0  0  0  0  0  0
   -0.5693   -7.0274    3.7321 C   0  0  0  0  0  0  0  0  0  0  0  0
    0.8251   -9.0856    2.9533 C   0  0  1  0  0  0  0  0  0  0  0  0
   -0.4394   -9.8169    2.4819 C   0  0  0  0  0  0  0  0  0  0  0  0
    1.6276   -8.5166    1.7814 C   0  0  0  0  0  0  0  0  0  0  0  0
    2.9529   -7.9365    2.2854 C   0  0  0  0  0  0  0  0  0  0  0  0
    2.7924   -6.8557    3.3847 C   0  0  1  0  0  0  0  0  0  0  0  0
    2.2411   -5.5556    2.7427 C   0  0  0  0  0  0  0  0  0  0  0  0
    4.2051   -6.5398    3.9146 C   0  0  0  0  0  0  0  0  0  0  0  0
    4.1487   -5.7471    5.2183 C   0  0  0  0  0  0  0  0  0  0  0  0
    3.4541   -6.5100    6.3738 C   0  0  1  0  0  0  0  0  0  0  0  0
    4.3822   -7.7107    6.7198 C   0  0  0  0  0  0  0  0  0  0  0  0
    4.7446   -7.1036   10.4695 H   0  0  0  0  0  0  0  0  0  0  0  0
    5.2168   -5.4915    9.9717 H   0  0  0  0  0  0  0  0  0  0  0  0
    5.4853   -6.8579    8.9128 H   0  0  0  0  0  0  0  0  0  0  0  0
    2.8574   -7.1825    9.0684 H   0  0  0  0  0  0  0  0  0  0  0  0
    2.8350   -5.6484    9.8101 H   0  0  0  0  0  0  0  0  0  0  0  0
    4.9534   -4.2469    8.1480 H   0  0  0  0  0  0  0  0  0  0  0  0
    4.1771   -3.7703    6.7018 H   0  0  0  0  0  0  0  0  0  0  0  0
    3.3893   -3.2282    9.4877 H   0  0  0  0  0  0  0  0  0  0  0  0
    1.3703   -4.0558    9.4204 H   0  0  0  0  0  0  0  0  0  0  0  0
    0.2158   -2.8364    6.9639 H   0  0  0  0  0  0  0  0  0  0  0  0
   -0.4571   -3.0295    8.5327 H   0  0  0  0  0  0  0  0  0  0  0  0
    0.5307   -0.6259    7.3831 H   0  0  0  0  0  0  0  0  0  0  0  0
   -0.0739   -0.7839    8.9982 H   0  0  0  0  0  0  0  0  0  0  0  0
    2.1227   -1.2959    9.8863 H   0  0  0  0  0  0  0  0  0  0  0  0
    4.5286   -0.8450    9.4926 H   0  0  0  0  0  0  0  0  0  0  0  0
    5.7805   -0.7732    7.3384 H   0  0  0  0  0  0  0  0  0  0  0  0
    4.7728    1.9113    8.2188 H   0  0  0  0  0  0  0  0  0  0  0  0
    7.6192    0.8197    7.8789 H   0  0  0  0  0  0  0  0  0  0  0  0
    6.7104    0.8284    9.3925 H   0  0  0  0  0  0  0  0  0  0  0  0
    7.1569    2.3428    8.6173 H   0  0  0  0  0  0  0  0  0  0  0  0
    6.0911    3.0737    6.4893 H   0  0  0  0  0  0  0  0  0  0  0  0
    6.4238    1.5739    5.6961 H   0  0  0  0  0  0  0  0  0  0  0  0
    3.8498    3.1167    5.8690 H   0  0  0  0  0  0  0  0  0  0  0  0
    4.5899    2.3718    4.4843 H   0  0  0  0  0  0  0  0  0  0  0  0
    2.6879    1.2812    6.5045 H   0  0  0  0  0  0  0  0  0  0  0  0
    2.2437    1.7392    4.3294 H   0  0  0  0  0  0  0  0  0  0  0  0
    5.7845   -0.2424    4.6834 H   0  0  0  0  0  0  0  0  0  0  0  0
    4.3466   -1.0049    4.0371 H   0  0  0  0  0  0  0  0  0  0  0  0
    5.3501   -1.8744    5.1792 H   0  0  0  0  0  0  0  0  0  0  0  0
    1.6637   -4.5682    6.4738 H   0  0  0  0  0  0  0  0  0  0  0  0
    1.5430   -8.0767    7.7083 H   0  0  0  0  0  0  0  0  0  0  0  0
    0.1986   -7.8866    6.6433 H   0  0  0  0  0  0  0  0  0  0  0  0
    0.1876   -8.6423    4.8618 H   0  0  0  0  0  0  0  0  0  0  0  0
   -0.6252   -6.2509    4.4993 H   0  0  0  0  0  0  0  0  0  0  0  0
   -1.5374   -7.5271    3.7079 H   0  0  0  0  0  0  0  0  0  0  0  0
   -0.4306   -6.5458    2.7687 H   0  0  0  0  0  0  0  0  0  0  0  0
    1.4552   -9.8521    3.4094 H   0  0  0  0  0  0  0  0  0  0  0  0
   -1.1165   -9.1582    1.9339 H   0  0  0  0  0  0  0  0  0  0  0  0
   -0.9853  -10.2310    3.3228 H   0  0  0  0  0  0  0  0  0  0  0  0
   -0.1864  -10.6554    1.8256 H   0  0  0  0  0  0  0  0  0  0  0  0
    1.8507   -9.3070    1.0646 H   0  0  0  0  0  0  0  0  0  0  0  0
    1.0434   -7.7698    1.2447 H   0  0  0  0  0  0  0  0  0  0  0  0
    3.5466   -8.7690    2.6706 H   0  0  0  0  0  0  0  0  0  0  0  0
    3.5151   -7.5374    1.4406 H   0  0  0  0  0  0  0  0  0  0  0  0
    3.0007   -5.0426    2.1521 H   0  0  0  0  0  0  0  0  0  0  0  0
    1.8882   -4.8555    3.5025 H   0  0  0  0  0  0  0  0  0  0  0  0
    1.4144   -5.7393    2.0648 H   0  0  0  0  0  0  0  0  0  0  0  0
    4.7865   -7.4491    4.0508 H   0  0  0  0  0  0  0  0  0  0  0  0
    4.7695   -5.9717    3.1754 H   0  0  0  0  0  0  0  0  0  0  0  0
    5.1615   -5.4626    5.5044 H   0  0  0  0  0  0  0  0  0  0  0  0
    3.6123   -4.8252    5.0005 H   0  0  0  0  0  0  0  0  0  0  0  0
    5.4181   -7.4054    6.8575 H   0  0  0  0  0  0  0  0  0  0  0  0
    4.3982   -8.4466    5.9134 H   0  0  0  0  0  0  0  0  0  0  0  0
    4.0559   -8.2803    7.5885 H   0  0  0  0  0  0  0  0  0  0  0  0
  1  2  1  0
  1 42  1  0
  1 43  1  0
  1 44  1  0
  3  2  1  1
  2 45  1  0
  2 46  1  0
  3 24  1  0
  3 40  1  0
  3  4  1  0
  4  5  1  0
  4 47  1  0
  4 48  1  0
  5 23  1  0
  5  6  1  0
  5 49  1  1
  6  7  1  0
  6 24  1  0
  6 50  1  1
  7  8  1  0
  7 51  1  0
  7 52  1  0
  8  9  1  0
  8 53  1  0
  8 54  1  0
  9 23  1  0
  9 10  1  0
  9 55  1  1
 10 11  1  0
 11 23  1  0
 11 12  1  0
 11 56  1  1
 12 19  1  0
 12 13  1  0
 12 57  1  6
 13 14  1  0
 13 15  1  0
 13 58  1  1
 14 59  1  0
 14 60  1  0
 14 61  1  0
 15 16  1  0
 15 62  1  0
 15 63  1  0
 16 17  1  0
 16 64  1  0
 16 65  1  0
 17 18  1  0
 17 19  1  0
 17 66  1  1
 18 67  1  0
 19 20  1  6
 19 21  1  0
 20 68  1  0
 20 69  1  0
 20 70  1  0
 21 22  2  0
 23 21  1  6
 24 25  1  0
 24 71  1  6
 25 26  2  0
 25 27  1  0
 27 28  1  0
 27 72  1  0
 27 73  1  0
 28 40  1  0
 28 29  2  0
 29 36  1  0
 29 30  1  0
 30 31  1  0
 30 32  1  0
 30 74  1  1
 31 75  1  0
 31 76  1  0
 31 77  1  0
 32 33  1  0
 32 34  1  0
 32 78  1  1
 33 79  1  0
 33 80  1  0
 33 81  1  0
 34 35  1  0
 34 82  1  0
 34 83  1  0
 35 36  1  0
 35 84  1  0
 35 85  1  0
 36 37  1  6
 36 38  1  0
 37 86  1  0
 37 87  1  0
 37 88  1  0
 38 39  1  0
 38 89  1  0
 38 90  1  0
 39 40  1  0
 39 91  1  0
 39 92  1  0
 40 41  1  1
 41 93  1  0
 41 94  1  0
 41 95  1  0
M  END
>  <i_m_ct_stereo_status>  (309) 
1

>  <s_m_source_file>  (309) 
/var/tmp/pbs.5076255.sched01/tmparsu8qf0/123n9qi1oz7.sdf

>  <i_m_source_file_index>  (309) 
9

>  <i_lp_mmshare_version>  (309) 
48012

>  <i_f3d_flags>  (309) 
0

>  <s_epik_input>  (309) 
W0NIM11bQ0BIXTFbQ0BASF0oW0NIM10pW0NIMl1bQ0gyXVtDQF0oW0NIM10pKFtDSDJdW0NIMl0yKUMxPUMoW0NIMl1DMz1PKVtDQF0yKFtDSDNdKVtDQF0oW0NIMl00KShbQ0gyXVtDSDNdKVtDQEBIXTNbQ0BASF0oW0NAQEhdNFtDQEBdNTY3KVtDSDJdW0NIMl1bQ0BASF01T1tDQEBIXTZbQ0BIXThbQ0BAXShbQ0gzXSkoQzc9TylbQ0BIXShbT0hdKVtDSDJdW0NIMl1bQ0BASF04W0NIM10=

>  <s_epik_cmdline>  (309) 
J2VwaWtfcHl0aG9uJywgJy1waHQnLCAnMi4wJywgJy1waCcsICc3LjAnLCAnLXRuJywgJzgnLCAnLW1hJywgJzIwMCcsICctaW1hZScsICc8aW5maWxlLm1hZT4nLCAnLW9tYWUnLCAnPG91dGZpbGUubWFlPic=

>  <r_lp_tautomer_probability>  (309) 
1

>  <r_epik_Ionization_Penalty>  (309) 
2.82004e-07

>  <r_epik_Ionization_Penalty_Charging>  (309) 
0

>  <r_epik_Ionization_Penalty_Neutral>  (309) 
2.82004e-07

>  <r_epik_State_Penalty>  (309) 
-0

>  <r_epik_Charging_Adjusted_Penalty>  (309) 
0

>  <i_epik_Tot_Q>  (309) 
0

>  <i_epik_Tot_abs_Q>  (309) 
0

>  <s_lp_Force_Field>  (309) 
OPLS3e

>  <r_lp_Energy>  (309) 
110.713

>  <b_lp_Chiralities_Consistent>  (309) 
1

>  <s_lp_Variant>  (309) 
98:0-1

>  <s_i_glide_gridfile>  (309) 
pfpi4k_grid

>  <i_i_glide_lignum>  (309) 
9

>  <i_i_glide_rotatable_bonds>  (309) 
2

>  <r_i_docking_score>  (309) 
-1.05234

>  <r_i_glide_ligand_efficiency>  (309) 
-0.0256668

>  <r_i_glide_ligand_efficiency_sa>  (309) 
-0.0885049

>  <r_i_glide_ligand_efficiency_ln>  (309) 
-0.223258

>  <r_i_glide_gscore>  (309) 
-1.05234

>  <r_i_glide_lipo>  (309) 
-0.143348

>  <r_i_glide_hbond>  (309) 
0

>  <r_i_glide_metal>  (309) 
-0

>  <r_i_glide_rewards>  (309) 
0

>  <r_i_glide_evdw>  (309) 
-18.1908

>  <r_i_glide_ecoul>  (309) 
0.0225026

>  <r_i_glide_erotb>  (309) 
0

>  <r_i_glide_esite>  (309) 
-0.00282704

>  <r_i_glide_emodel>  (309) 
-18.8838

>  <r_i_glide_energy>  (309) 
-18.1683

>  <r_i_glide_einternal>  (309) 
0.378696

>  <r_i_glide_intrahb_reward>  (309) 
-0

>  <i_i_glide_confnum>  (309) 
1

>  <i_i_glide_posenum>  (309) 
15

>  <r_i_glide_eff_state_penalty>  (309) 
0

>  <ligand_id>  (309) 
98

>  <original_smiles>  (309) 
CCC12CC3C(CCC4OC5C6C(C)CCC(O)C6(C)C(=O)C435)C1C(=O)CC1=C3C(C)C(C)CCC3(C)CCC12C

>  <smiles>  (309) 
[H]OC1([H])C([H])([H])C([H])([H])C([H])(C([H])([H])[H])C2([H])C3([H])OC4([H])C([H])([H])C([H])([H])C5([H])C6([H])C(=O)C([H])([H])C7=C8C([H])(C([H])([H])[H])C([H])(C([H])([H])[H])C([H])([H])C([H])([H])C8(C([H])([H])[H])C([H])([H])C([H])([H])C7(C([H])([H])[H])C6(C([H])([H])C([H])([H])[H])C([H])([H])C5([H])C43C(=O)C12C([H])([H])[H]

$$$$
99:0:0
     RDKit          3D

 55 57  0  0  1  0  0  0  0  0999 V2000
    8.2064   -2.7608   -1.5767 C   0  0  0  0  0  0  0  0  0  0  0  0
    7.3321   -3.4632   -0.7120 O   0  0  0  0  0  0  0  0  0  0  0  0
    7.8417   -4.1771    0.3266 C   0  0  0  0  0  0  0  0  0  0  0  0
    9.0138   -4.1050    0.6372 O   0  0  0  0  0  0  0  0  0  0  0  0
    6.8316   -5.0214    1.0290 C   0  0  0  0  0  0  0  0  0  0  0  0
    7.1884   -5.8709    2.0384 C   0  0  0  0  0  0  0  0  0  0  0  0
    8.5754   -6.0740    2.6297 C   0  0  0  0  0  0  0  0  0  0  0  0
    6.1880   -6.6214    2.6978 N   0  0  0  0  0  0  0  0  0  0  0  0
    4.9779   -6.7196    2.2886 C   0  0  0  0  0  0  0  0  0  0  0  0
    3.9384   -7.5346    3.0694 C   0  0  0  0  0  0  0  0  0  0  0  0
    2.8190   -8.1324    2.1649 C   0  0  0  0  0  0  0  0  0  0  0  0
    3.4167   -9.1373    1.1508 C   0  0  0  0  0  0  0  0  0  0  0  0
    1.8012   -8.9107    3.0211 C   0  0  0  0  0  0  0  0  0  0  0  0
    2.0583   -6.9989    1.4364 C   0  0  0  0  0  0  0  0  0  0  0  0
    2.9551   -5.8831    0.9124 C   0  0  0  0  0  0  0  0  0  0  0  0
    2.4100   -4.9003    0.4163 O   0  0  0  0  0  0  0  0  0  0  0  0
    4.4986   -6.0652    0.9903 C   0  0  1  0  0  0  0  0  0  0  0  0
    5.3762   -4.8445    0.6157 C   0  0  1  0  0  0  0  0  0  0  0  0
    4.8363   -3.5456    1.2052 C   0  0  0  0  0  0  0  0  0  0  0  0
    4.7734   -3.4259    2.6075 C   0  0  0  0  0  0  0  0  0  0  0  0
    4.2393   -2.2830    3.2235 C   0  0  0  0  0  0  0  0  0  0  0  0
    4.1300   -2.1405    4.5910 O   0  0  0  0  0  0  0  0  0  0  0  0
    4.6190   -3.1909    5.4258 C   0  0  0  0  0  0  0  0  0  0  0  0
    3.7799   -1.2398    2.3988 C   0  0  0  0  0  0  0  0  0  0  0  0
    3.8524   -1.3354    0.9952 C   0  0  0  0  0  0  0  0  0  0  0  0
    4.3813   -2.4937    0.3787 C   0  0  0  0  0  0  0  0  0  0  0  0
    4.4592   -2.6641   -0.9891 O   0  0  0  0  0  0  0  0  0  0  0  0
    4.0625   -1.5950   -1.8377 C   0  0  0  0  0  0  0  0  0  0  0  0
    7.6307   -2.2140   -2.3345 H   0  0  0  0  0  0  0  0  0  0  0  0
    8.8618   -3.4842   -2.0639 H   0  0  0  0  0  0  0  0  0  0  0  0
    8.8166   -2.0740   -0.9881 H   0  0  0  0  0  0  0  0  0  0  0  0
    9.3816   -5.7518    1.9925 H   0  0  0  0  0  0  0  0  0  0  0  0
    8.7205   -7.1334    2.8786 H   0  0  0  0  0  0  0  0  0  0  0  0
    8.6435   -5.5414    3.5843 H   0  0  0  0  0  0  0  0  0  0  0  0
    4.4303   -8.3475    3.6084 H   0  0  0  0  0  0  0  0  0  0  0  0
    3.4992   -6.9009    3.8488 H   0  0  0  0  0  0  0  0  0  0  0  0
    2.6292   -9.5275    0.5029 H   0  0  0  0  0  0  0  0  0  0  0  0
    3.8579   -9.9889    1.6731 H   0  0  0  0  0  0  0  0  0  0  0  0
    4.1946   -8.7207    0.5061 H   0  0  0  0  0  0  0  0  0  0  0  0
    1.0209   -9.3494    2.3952 H   0  0  0  0  0  0  0  0  0  0  0  0
    1.3109   -8.2843    3.7687 H   0  0  0  0  0  0  0  0  0  0  0  0
    2.2862   -9.7319    3.5488 H   0  0  0  0  0  0  0  0  0  0  0  0
    1.4790   -7.3935    0.5986 H   0  0  0  0  0  0  0  0  0  0  0  0
    1.3294   -6.5262    2.1011 H   0  0  0  0  0  0  0  0  0  0  0  0
    4.7333   -6.7806    0.2071 H   0  0  0  0  0  0  0  0  0  0  0  0
    5.3151   -4.8443   -0.4718 H   0  0  0  0  0  0  0  0  0  0  0  0
    5.1169   -4.2410    3.2169 H   0  0  0  0  0  0  0  0  0  0  0  0
    4.4754   -2.9081    6.4685 H   0  0  0  0  0  0  0  0  0  0  0  0
    5.6877   -3.3682    5.2790 H   0  0  0  0  0  0  0  0  0  0  0  0
    4.0800   -4.1282    5.2651 H   0  0  0  0  0  0  0  0  0  0  0  0
    3.3649   -0.3575    2.8581 H   0  0  0  0  0  0  0  0  0  0  0  0
    3.4682   -0.5145    0.4064 H   0  0  0  0  0  0  0  0  0  0  0  0
    4.1796   -1.8860   -2.8838 H   0  0  0  0  0  0  0  0  0  0  0  0
    4.6834   -0.7157   -1.6627 H   0  0  0  0  0  0  0  0  0  0  0  0
    3.0148   -1.3302   -1.6886 H   0  0  0  0  0  0  0  0  0  0  0  0
  1  2  1  0
  1 29  1  0
  1 30  1  0
  1 31  1  0
  2  3  1  0
  3  4  2  0
  3  5  1  0
  5 18  1  0
  5  6  2  0
  6  7  1  0
  6  8  1  0
  7 32  1  0
  7 33  1  0
  7 34  1  0
  8  9  2  0
  9 17  1  0
  9 10  1  0
 10 11  1  0
 10 35  1  0
 10 36  1  0
 11 12  1  0
 11 13  1  0
 11 14  1  0
 12 37  1  0
 12 38  1  0
 12 39  1  0
 13 40  1  0
 13 41  1  0
 13 42  1  0
 14 15  1  0
 14 43  1  0
 14 44  1  0
 15 16  2  0
 15 17  1  0
 17 18  1  0
 17 45  1  6
 18 19  1  0
 18 46  1  6
 19 26  1  0
 19 20  2  0
 20 21  1  0
 20 47  1  0
 21 22  1  0
 21 24  2  0
 22 23  1  0
 23 48  1  0
 23 49  1  0
 23 50  1  0
 24 25  1  0
 24 51  1  0
 25 26  2  0
 25 52  1  0
 26 27  1  0
 27 28  1  0
 28 53  1  0
 28 54  1  0
 28 55  1  0
M  END
>  <i_m_ct_stereo_status>  (310) 
1

>  <s_m_source_file>  (310) 
/var/tmp/pbs.5076255.sched01/tmparsu8qf0/123n9qi1oz7.sdf

>  <i_m_source_file_index>  (310) 
10

>  <i_lp_mmshare_version>  (310) 
48012

>  <i_f3d_flags>  (310) 
0

>  <s_epik_input>  (310) 
W0NIMl0xQyhbQ0gzXSkoW0NIM10pW0NIMl1DKD1PKVtDQEhdKEMxMilbQ0BIXShDKD1DKE49MilbQ0gzXSlDKD1PKU9bQ0gzXSljM1tjSF1jKE9bQ0gzXSlbY0hdW2NIXWMzT1tDSDNd

>  <s_epik_cmdline>  (310) 
J2VwaWtfcHl0aG9uJywgJy1waHQnLCAnMi4wJywgJy1waCcsICc3LjAnLCAnLXRuJywgJzgnLCAnLW1hJywgJzIwMCcsICctaW1hZScsICc8aW5maWxlLm1hZT4nLCAnLW9tYWUnLCAnPG91dGZpbGUubWFlPic=

>  <r_lp_tautomer_probability>  (310) 
0.499981

>  <r_epik_Ionization_Penalty>  (310) 
2.61444e-10

>  <r_epik_Ionization_Penalty_Charging>  (310) 
0

>  <r_epik_Ionization_Penalty_Neutral>  (310) 
2.61444e-10

>  <r_epik_State_Penalty>  (310) 
0.41068

>  <r_epik_Charging_Adjusted_Penalty>  (310) 
0.41068

>  <i_epik_Tot_Q>  (310) 
0

>  <i_epik_Tot_abs_Q>  (310) 
0

>  <s_epik_Chemistry_Notes>  (310) 
This compound has an ester and may undergo hydrolysis at high or low pH. This compound has an imine and may undergo hydrolysis.

>  <s_lp_Force_Field>  (310) 
OPLS3e

>  <r_lp_Energy>  (310) 
40.8683

>  <b_lp_Chiralities_Consistent>  (310) 
1

>  <s_lp_Variant>  (310) 
99:0-1

>  <s_i_glide_gridfile>  (310) 
pfpi4k_grid

>  <i_i_glide_lignum>  (310) 
10

>  <i_i_glide_rotatable_bonds>  (310) 
5

>  <r_i_docking_score>  (310) 
-2.77983

>  <r_i_glide_ligand_efficiency>  (310) 
-0.0992798

>  <r_i_glide_ligand_efficiency_sa>  (310) 
-0.301472

>  <r_i_glide_ligand_efficiency_ln>  (310) 
-0.641667

>  <r_i_glide_gscore>  (310) 
-2.77983

>  <r_i_glide_lipo>  (310) 
-0.395961

>  <r_i_glide_hbond>  (310) 
-0.0339613

>  <r_i_glide_metal>  (310) 
-0

>  <r_i_glide_rewards>  (310) 
-1.03173

>  <r_i_glide_evdw>  (310) 
-28.8875

>  <r_i_glide_ecoul>  (310) 
-0.830192

>  <r_i_glide_erotb>  (310) 
0.261864

>  <r_i_glide_esite>  (310) 
-0.0111488

>  <r_i_glide_emodel>  (310) 
-33.5446

>  <r_i_glide_energy>  (310) 
-29.7176

>  <r_i_glide_einternal>  (310) 
0.724517

>  <r_i_glide_intrahb_reward>  (310) 
-0

>  <i_i_glide_confnum>  (310) 
4

>  <i_i_glide_posenum>  (310) 
19

>  <r_i_glide_eff_state_penalty>  (310) 
0

>  <ligand_id>  (310) 
99

>  <original_smiles>  (310) 
COC(=O)C1=C(C)N=C2CC(C)(C)CC(=O)C2C1c1cc(OC)ccc1OC

>  <smiles>  (310) 
[H]c1c([H])c(OC([H])([H])[H])c(C2([H])C(C(=O)OC([H])([H])[H])=C(C([H])([H])[H])N=C3C([H])([H])C(C([H])([H])[H])(C([H])([H])[H])C([H])([H])C(=O)C32[H])c([H])c1OC([H])([H])[H]

$$$$
99:0:1
     RDKit          3D

 55 57  0  0  1  0  0  0  0  0999 V2000
    8.0889   -2.8858   -1.3105 C   0  0  0  0  0  0  0  0  0  0  0  0
    7.2560   -3.6138   -0.4284 O   0  0  0  0  0  0  0  0  0  0  0  0
    7.8012   -4.5197    0.4364 C   0  0  0  0  0  0  0  0  0  0  0  0
    9.0007   -4.6841    0.5082 O   0  0  0  0  0  0  0  0  0  0  0  0
    6.8151   -5.2896    1.2124 C   0  0  0  0  0  0  0  0  0  0  0  0
    7.1676   -6.0460    2.2787 C   0  0  0  0  0  0  0  0  0  0  0  0
    8.5699   -6.1329    2.8872 C   0  0  0  0  0  0  0  0  0  0  0  0
    6.1922   -6.7643    2.9997 N   0  0  0  0  0  0  0  0  0  0  0  0
    4.9869   -6.9247    2.5814 C   0  0  0  0  0  0  0  0  0  0  0  0
    3.9659   -7.7072    3.4146 C   0  0  0  0  0  0  0  0  0  0  0  0
    2.8828   -8.4150    2.5506 C   0  0  0  0  0  0  0  0  0  0  0  0
    3.5187   -9.4771    1.6293 C   0  0  0  0  0  0  0  0  0  0  0  0
    1.8796   -9.1479    3.4561 C   0  0  0  0  0  0  0  0  0  0  0  0
    2.1004   -7.3782    1.7159 C   0  0  0  0  0  0  0  0  0  0  0  0
    2.9590   -6.2775    1.1120 C   0  0  0  0  0  0  0  0  0  0  0  0
    2.3883   -5.3689    0.5153 O   0  0  0  0  0  0  0  0  0  0  0  0
    4.5079   -6.4020    1.2258 C   0  0  1  0  0  0  0  0  0  0  0  0
    5.3586   -5.1974    0.7560 C   0  0  1  0  0  0  0  0  0  0  0  0
    4.7649   -3.8742    1.2118 C   0  0  0  0  0  0  0  0  0  0  0  0
    4.8217   -3.5410    2.5819 C   0  0  0  0  0  0  0  0  0  0  0  0
    4.2550   -2.3521    3.0626 C   0  0  0  0  0  0  0  0  0  0  0  0
    4.3246   -2.0831    4.4098 O   0  0  0  0  0  0  0  0  0  0  0  0
    3.7696   -0.8599    4.8511 C   0  0  0  0  0  0  0  0  0  0  0  0
    3.6294   -1.4881    2.1356 C   0  0  0  0  0  0  0  0  0  0  0  0
    3.5771   -1.8041    0.7714 C   0  0  0  0  0  0  0  0  0  0  0  0
    4.1463   -2.9957    0.2864 C   0  0  0  0  0  0  0  0  0  0  0  0
    4.1090   -3.3610   -1.0414 O   0  0  0  0  0  0  0  0  0  0  0  0
    3.2722   -2.6124   -1.9225 C   0  0  0  0  0  0  0  0  0  0  0  0
    7.4922   -2.2153   -1.9334 H   0  0  0  0  0  0  0  0  0  0  0  0
    8.6419   -3.5818   -1.9458 H   0  0  0  0  0  0  0  0  0  0  0  0
    8.8112   -2.3109   -0.7244 H   0  0  0  0  0  0  0  0  0  0  0  0
    9.3600   -5.7992    2.2573 H   0  0  0  0  0  0  0  0  0  0  0  0
    8.7736   -7.1721    3.2100 H   0  0  0  0  0  0  0  0  0  0  0  0
    8.5908   -5.5470    3.8201 H   0  0  0  0  0  0  0  0  0  0  0  0
    4.4797   -8.4521    4.0229 H   0  0  0  0  0  0  0  0  0  0  0  0
    3.4965   -7.0225    4.1340 H   0  0  0  0  0  0  0  0  0  0  0  0
    2.7626   -9.9231    0.9756 H   0  0  0  0  0  0  0  0  0  0  0  0
    3.9741  -10.2785    2.2183 H   0  0  0  0  0  0  0  0  0  0  0  0
    4.3065   -9.0899    0.9682 H   0  0  0  0  0  0  0  0  0  0  0  0
    1.1201   -9.6637    2.8614 H   0  0  0  0  0  0  0  0  0  0  0  0
    1.3558   -8.4757    4.1420 H   0  0  0  0  0  0  0  0  0  0  0  0
    2.3798   -9.9061    4.0609 H   0  0  0  0  0  0  0  0  0  0  0  0
    1.5661   -7.8669    0.8986 H   0  0  0  0  0  0  0  0  0  0  0  0
    1.3397   -6.8782    2.3217 H   0  0  0  0  0  0  0  0  0  0  0  0
    4.7792   -7.1807    0.5146 H   0  0  0  0  0  0  0  0  0  0  0  0
    5.3480   -5.2748   -0.3295 H   0  0  0  0  0  0  0  0  0  0  0  0
    5.2800   -4.2092    3.2995 H   0  0  0  0  0  0  0  0  0  0  0  0
    3.8805   -0.7243    5.9340 H   0  0  0  0  0  0  0  0  0  0  0  0
    2.7073   -0.8271    4.6220 H   0  0  0  0  0  0  0  0  0  0  0  0
    4.2666   -0.0266    4.3599 H   0  0  0  0  0  0  0  0  0  0  0  0
    3.1642   -0.5565    2.4258 H   0  0  0  0  0  0  0  0  0  0  0  0
    3.0631   -1.1093    0.1193 H   0  0  0  0  0  0  0  0  0  0  0  0
    3.3381   -3.0215   -2.9274 H   0  0  0  0  0  0  0  0  0  0  0  0
    3.5855   -1.5691   -1.9736 H   0  0  0  0  0  0  0  0  0  0  0  0
    2.2263   -2.6573   -1.6134 H   0  0  0  0  0  0  0  0  0  0  0  0
  1  2  1  0
  1 29  1  0
  1 30  1  0
  1 31  1  0
  2  3  1  0
  3  4  2  0
  3  5  1  0
  5 18  1  0
  5  6  2  0
  6  7  1  0
  6  8  1  0
  7 32  1  0
  7 33  1  0
  7 34  1  0
  8  9  2  0
  9 17  1  0
  9 10  1  0
 10 11  1  0
 10 35  1  0
 10 36  1  0
 11 12  1  0
 11 13  1  0
 11 14  1  0
 12 37  1  0
 12 38  1  0
 12 39  1  0
 13 40  1  0
 13 41  1  0
 13 42  1  0
 14 15  1  0
 14 43  1  0
 14 44  1  0
 15 16  2  0
 15 17  1  0
 17 18  1  0
 17 45  1  6
 18 19  1  0
 18 46  1  6
 19 26  1  0
 19 20  2  0
 20 21  1  0
 20 47  1  0
 21 22  1  0
 21 24  2  0
 22 23  1  0
 23 48  1  0
 23 49  1  0
 23 50  1  0
 24 25  1  0
 24 51  1  0
 25 26  2  0
 25 52  1  0
 26 27  1  0
 27 28  1  0
 28 53  1  0
 28 54  1  0
 28 55  1  0
M  END
>  <i_m_ct_stereo_status>  (311) 
1

>  <s_m_source_file>  (311) 
/var/tmp/pbs.5076255.sched01/tmparsu8qf0/123n9qi1oz7.sdf

>  <i_m_source_file_index>  (311) 
10

>  <i_lp_mmshare_version>  (311) 
48012

>  <i_f3d_flags>  (311) 
0

>  <s_epik_input>  (311) 
W0NIMl0xQyhbQ0gzXSkoW0NIM10pW0NIMl1DKD1PKVtDQEhdKEMxMilbQ0BIXShDKD1DKE49MilbQ0gzXSlDKD1PKU9bQ0gzXSljM1tjSF1jKE9bQ0gzXSlbY0hdW2NIXWMzT1tDSDNd

>  <s_epik_cmdline>  (311) 
J2VwaWtfcHl0aG9uJywgJy1waHQnLCAnMi4wJywgJy1waCcsICc3LjAnLCAnLXRuJywgJzgnLCAnLW1hJywgJzIwMCcsICctaW1hZScsICc8aW5maWxlLm1hZT4nLCAnLW9tYWUnLCAnPG91dGZpbGUubWFlPic=

>  <r_lp_tautomer_probability>  (311) 
0.499981

>  <r_epik_Ionization_Penalty>  (311) 
2.61444e-10

>  <r_epik_Ionization_Penalty_Charging>  (311) 
0

>  <r_epik_Ionization_Penalty_Neutral>  (311) 
2.61444e-10

>  <r_epik_State_Penalty>  (311) 
0.41068

>  <r_epik_Charging_Adjusted_Penalty>  (311) 
0.41068

>  <i_epik_Tot_Q>  (311) 
0

>  <i_epik_Tot_abs_Q>  (311) 
0

>  <s_epik_Chemistry_Notes>  (311) 
This compound has an ester and may undergo hydrolysis at high or low pH. This compound has an imine and may undergo hydrolysis.

>  <s_lp_Force_Field>  (311) 
OPLS3e

>  <r_lp_Energy>  (311) 
40.8683

>  <b_lp_Chiralities_Consistent>  (311) 
1

>  <s_lp_Variant>  (311) 
99:0-1

>  <s_i_glide_gridfile>  (311) 
pfpi4k_grid

>  <i_i_glide_lignum>  (311) 
10

>  <i_i_glide_rotatable_bonds>  (311) 
5

>  <r_i_docking_score>  (311) 
-2.74581

>  <r_i_glide_ligand_efficiency>  (311) 
-0.0980647

>  <r_i_glide_ligand_efficiency_sa>  (311) 
-0.297782

>  <r_i_glide_ligand_efficiency_ln>  (311) 
-0.633814

>  <r_i_glide_gscore>  (311) 
-2.74581

>  <r_i_glide_lipo>  (311) 
-0.369065

>  <r_i_glide_hbond>  (311) 
-0.0227791

>  <r_i_glide_metal>  (311) 
-0

>  <r_i_glide_rewards>  (311) 
-1.00934

>  <r_i_glide_evdw>  (311) 
-27.3189

>  <r_i_glide_ecoul>  (311) 
-1.60367

>  <r_i_glide_erotb>  (311) 
0.261864

>  <r_i_glide_esite>  (311) 
0

>  <r_i_glide_emodel>  (311) 
-31.3838

>  <r_i_glide_energy>  (311) 
-28.9226

>  <r_i_glide_einternal>  (311) 
4.08387

>  <r_i_glide_intrahb_reward>  (311) 
-0

>  <i_i_glide_confnum>  (311) 
3

>  <i_i_glide_posenum>  (311) 
6

>  <r_i_glide_eff_state_penalty>  (311) 
0

>  <ligand_id>  (311) 
99

>  <original_smiles>  (311) 
COC(=O)C1=C(C)N=C2CC(C)(C)CC(=O)C2C1c1cc(OC)ccc1OC

>  <smiles>  (311) 
[H]c1c([H])c(OC([H])([H])[H])c(C2([H])C(C(=O)OC([H])([H])[H])=C(C([H])([H])[H])N=C3C([H])([H])C(C([H])([H])[H])(C([H])([H])[H])C([H])([H])C(=O)C32[H])c([H])c1OC([H])([H])[H]

$$$$
99:0:2
     RDKit          3D

 55 57  0  0  1  0  0  0  0  0999 V2000
    7.5455   -6.7146    1.4898 C   0  0  0  0  0  0  0  0  0  0  0  0
    6.1995   -6.8531    1.9176 O   0  0  0  0  0  0  0  0  0  0  0  0
    5.8323   -6.4169    3.1427 C   0  0  0  0  0  0  0  0  0  0  0  0
    6.5940   -5.8138    3.9072 O   0  0  0  0  0  0  0  0  0  0  0  0
    4.4224   -6.7143    3.4612 C   0  0  0  0  0  0  0  0  0  0  0  0
    4.0080   -7.0785    4.6999 C   0  0  0  0  0  0  0  0  0  0  0  0
    4.9246   -7.2488    5.9098 C   0  0  0  0  0  0  0  0  0  0  0  0
    2.6563   -7.2996    4.9854 N   0  0  0  0  0  0  0  0  0  0  0  0
    1.7597   -7.3748    4.0685 C   0  0  0  0  0  0  0  0  0  0  0  0
    0.2805   -7.5926    4.4138 C   0  0  0  0  0  0  0  0  0  0  0  0
   -0.5124   -8.3078    3.2885 C   0  0  0  0  0  0  0  0  0  0  0  0
    0.0308   -9.7323    3.0456 C   0  0  0  0  0  0  0  0  0  0  0  0
   -1.9873   -8.4453    3.7049 C   0  0  0  0  0  0  0  0  0  0  0  0
   -0.4755   -7.4819    1.9897 C   0  0  0  0  0  0  0  0  0  0  0  0
    0.8945   -6.8728    1.6731 C   0  0  0  0  0  0  0  0  0  0  0  0
    1.0060   -6.1460    0.6901 O   0  0  0  0  0  0  0  0  0  0  0  0
    2.0988   -7.2471    2.5721 C   0  0  1  0  0  0  0  0  0  0  0  0
    3.4098   -6.4515    2.3441 C   0  0  1  0  0  0  0  0  0  0  0  0
    3.1710   -4.9420    2.1938 C   0  0  0  0  0  0  0  0  0  0  0  0
    2.5469   -4.2482    3.2446 C   0  0  0  0  0  0  0  0  0  0  0  0
    2.2394   -2.8812    3.1443 C   0  0  0  0  0  0  0  0  0  0  0  0
    1.5825   -2.1859    4.1427 O   0  0  0  0  0  0  0  0  0  0  0  0
    1.2066   -2.8816    5.3267 C   0  0  0  0  0  0  0  0  0  0  0  0
    2.6027   -2.2038    1.9712 C   0  0  0  0  0  0  0  0  0  0  0  0
    3.2447   -2.8750    0.9197 C   0  0  0  0  0  0  0  0  0  0  0  0
    3.5432   -4.2563    1.0152 C   0  0  0  0  0  0  0  0  0  0  0  0
    4.1676   -4.9876    0.0151 O   0  0  0  0  0  0  0  0  0  0  0  0
    4.5693   -4.3093   -1.1601 C   0  0  0  0  0  0  0  0  0  0  0  0
    7.6619   -7.0586    0.4627 H   0  0  0  0  0  0  0  0  0  0  0  0
    8.1918   -7.3093    2.1342 H   0  0  0  0  0  0  0  0  0  0  0  0
    7.8566   -5.6720    1.5493 H   0  0  0  0  0  0  0  0  0  0  0  0
    5.9812   -7.3347    5.6382 H   0  0  0  0  0  0  0  0  0  0  0  0
    4.6114   -8.1174    6.5034 H   0  0  0  0  0  0  0  0  0  0  0  0
    4.8247   -6.3877    6.5757 H   0  0  0  0  0  0  0  0  0  0  0  0
    0.2139   -8.1638    5.3397 H   0  0  0  0  0  0  0  0  0  0  0  0
   -0.1650   -6.6199    4.6472 H   0  0  0  0  0  0  0  0  0  0  0  0
   -0.5012  -10.2165    2.2242 H   0  0  0  0  0  0  0  0  0  0  0  0
   -0.1107  -10.3580    3.9299 H   0  0  0  0  0  0  0  0  0  0  0  0
    1.0928   -9.7617    2.7914 H   0  0  0  0  0  0  0  0  0  0  0  0
   -2.5721   -8.9677    2.9439 H   0  0  0  0  0  0  0  0  0  0  0  0
   -2.4769   -7.4868    3.8899 H   0  0  0  0  0  0  0  0  0  0  0  0
   -2.0775   -9.0298    4.6202 H   0  0  0  0  0  0  0  0  0  0  0  0
   -0.7793   -8.0916    1.1400 H   0  0  0  0  0  0  0  0  0  0  0  0
   -1.1986   -6.6675    2.0421 H   0  0  0  0  0  0  0  0  0  0  0  0
    2.3562   -8.2570    2.2607 H   0  0  0  0  0  0  0  0  0  0  0  0
    3.7915   -6.8745    1.4198 H   0  0  0  0  0  0  0  0  0  0  0  0
    2.2774   -4.7884    4.1402 H   0  0  0  0  0  0  0  0  0  0  0  0
    0.7340   -2.1859    6.0195 H   0  0  0  0  0  0  0  0  0  0  0  0
    2.0639   -3.3142    5.8443 H   0  0  0  0  0  0  0  0  0  0  0  0
    0.4864   -3.6750    5.1227 H   0  0  0  0  0  0  0  0  0  0  0  0
    2.3654   -1.1539    1.8708 H   0  0  0  0  0  0  0  0  0  0  0  0
    3.4850   -2.3186    0.0265 H   0  0  0  0  0  0  0  0  0  0  0  0
    5.0138   -5.0198   -1.8598 H   0  0  0  0  0  0  0  0  0  0  0  0
    5.3204   -3.5532   -0.9319 H   0  0  0  0  0  0  0  0  0  0  0  0
    3.7276   -3.8442   -1.6754 H   0  0  0  0  0  0  0  0  0  0  0  0
  1  2  1  0
  1 29  1  0
  1 30  1  0
  1 31  1  0
  2  3  1  0
  3  4  2  0
  3  5  1  0
  5 18  1  0
  5  6  2  0
  6  7  1  0
  6  8  1  0
  7 32  1  0
  7 33  1  0
  7 34  1  0
  8  9  2  0
  9 17  1  0
  9 10  1  0
 10 11  1  0
 10 35  1  0
 10 36  1  0
 11 12  1  0
 11 13  1  0
 11 14  1  0
 12 37  1  0
 12 38  1  0
 12 39  1  0
 13 40  1  0
 13 41  1  0
 13 42  1  0
 14 15  1  0
 14 43  1  0
 14 44  1  0
 15 16  2  0
 15 17  1  0
 17 18  1  0
 17 45  1  6
 18 19  1  0
 18 46  1  6
 19 26  1  0
 19 20  2  0
 20 21  1  0
 20 47  1  0
 21 22  1  0
 21 24  2  0
 22 23  1  0
 23 48  1  0
 23 49  1  0
 23 50  1  0
 24 25  1  0
 24 51  1  0
 25 26  2  0
 25 52  1  0
 26 27  1  0
 27 28  1  0
 28 53  1  0
 28 54  1  0
 28 55  1  0
M  END
>  <i_m_ct_stereo_status>  (312) 
1

>  <s_m_source_file>  (312) 
/var/tmp/pbs.5076255.sched01/tmparsu8qf0/123n9qi1oz7.sdf

>  <i_m_source_file_index>  (312) 
10

>  <i_lp_mmshare_version>  (312) 
48012

>  <i_f3d_flags>  (312) 
0

>  <s_epik_input>  (312) 
W0NIMl0xQyhbQ0gzXSkoW0NIM10pW0NIMl1DKD1PKVtDQEhdKEMxMilbQ0BIXShDKD1DKE49MilbQ0gzXSlDKD1PKU9bQ0gzXSljM1tjSF1jKE9bQ0gzXSlbY0hdW2NIXWMzT1tDSDNd

>  <s_epik_cmdline>  (312) 
J2VwaWtfcHl0aG9uJywgJy1waHQnLCAnMi4wJywgJy1waCcsICc3LjAnLCAnLXRuJywgJzgnLCAnLW1hJywgJzIwMCcsICctaW1hZScsICc8aW5maWxlLm1hZT4nLCAnLW9tYWUnLCAnPG91dGZpbGUubWFlPic=

>  <r_lp_tautomer_probability>  (312) 
0.499981

>  <r_epik_Ionization_Penalty>  (312) 
2.61444e-10

>  <r_epik_Ionization_Penalty_Charging>  (312) 
0

>  <r_epik_Ionization_Penalty_Neutral>  (312) 
2.61444e-10

>  <r_epik_State_Penalty>  (312) 
0.41068

>  <r_epik_Charging_Adjusted_Penalty>  (312) 
0.41068

>  <i_epik_Tot_Q>  (312) 
0

>  <i_epik_Tot_abs_Q>  (312) 
0

>  <s_epik_Chemistry_Notes>  (312) 
This compound has an ester and may undergo hydrolysis at high or low pH. This compound has an imine and may undergo hydrolysis.

>  <s_lp_Force_Field>  (312) 
OPLS3e

>  <r_lp_Energy>  (312) 
40.8683

>  <b_lp_Chiralities_Consistent>  (312) 
1

>  <s_lp_Variant>  (312) 
99:0-1

>  <s_i_glide_gridfile>  (312) 
pfpi4k_grid

>  <i_i_glide_lignum>  (312) 
10

>  <i_i_glide_rotatable_bonds>  (312) 
5

>  <r_i_docking_score>  (312) 
-2.33402

>  <r_i_glide_ligand_efficiency>  (312) 
-0.0833578

>  <r_i_glide_ligand_efficiency_sa>  (312) 
-0.253123

>  <r_i_glide_ligand_efficiency_ln>  (312) 
-0.53876

>  <r_i_glide_gscore>  (312) 
-2.33402

>  <r_i_glide_lipo>  (312) 
-0.00367599

>  <r_i_glide_hbond>  (312) 
-0.16

>  <r_i_glide_metal>  (312) 
-0

>  <r_i_glide_rewards>  (312) 
-0.784829

>  <r_i_glide_evdw>  (312) 
-23.9132

>  <r_i_glide_ecoul>  (312) 
-2.50839

>  <r_i_glide_erotb>  (312) 
0.261864

>  <r_i_glide_esite>  (312) 
-0.0754576

>  <r_i_glide_emodel>  (312) 
-30.1018

>  <r_i_glide_energy>  (312) 
-26.4216

>  <r_i_glide_einternal>  (312) 
0.60223

>  <r_i_glide_intrahb_reward>  (312) 
-0

>  <i_i_glide_confnum>  (312) 
3

>  <i_i_glide_posenum>  (312) 
39

>  <r_i_glide_eff_state_penalty>  (312) 
0

>  <ligand_id>  (312) 
99

>  <original_smiles>  (312) 
COC(=O)C1=C(C)N=C2CC(C)(C)CC(=O)C2C1c1cc(OC)ccc1OC

>  <smiles>  (312) 
[H]c1c([H])c(OC([H])([H])[H])c(C2([H])C(C(=O)OC([H])([H])[H])=C(C([H])([H])[H])N=C3C([H])([H])C(C([H])([H])[H])(C([H])([H])[H])C([H])([H])C(=O)C32[H])c([H])c1OC([H])([H])[H]

$$$$
99:1:0
     RDKit          3D

 55 57  0  0  1  0  0  0  0  0999 V2000
    4.2922   -8.1002    4.2277 C   0  0  0  0  0  0  0  0  0  0  0  0
    3.1037   -7.4081    4.6513 O   0  0  0  0  0  0  0  0  0  0  0  0
    2.3002   -6.6819    3.7907 C   0  0  0  0  0  0  0  0  0  0  0  0
    1.2533   -6.1481    4.1855 O   0  0  0  0  0  0  0  0  0  0  0  0
    2.7709   -6.5296    2.3213 C   0  0  1  0  0  0  0  0  0  0  0  0
    1.6479   -6.2515    1.2745 C   0  0  0  0  0  0  0  0  0  0  0  0
    0.3510   -7.0409    1.3837 C   0  0  0  0  0  0  0  0  0  0  0  0
    1.7874   -5.4781    0.2872 N   0  0  0  0  0  0  0  0  0  0  0  0
    2.9885   -4.8029    0.0272 C   0  0  0  0  0  0  0  0  0  0  0  0
    2.9807   -3.7353   -0.7719 C   0  0  0  0  0  0  0  0  0  0  0  0
    4.2097   -2.8861   -1.1107 C   0  0  0  0  0  0  0  0  0  0  0  0
    4.7567   -3.3898   -2.4543 C   0  0  0  0  0  0  0  0  0  0  0  0
    3.8147   -1.4127   -1.2322 C   0  0  0  0  0  0  0  0  0  0  0  0
    5.2724   -3.0146    0.0061 C   0  0  0  0  0  0  0  0  0  0  0  0
    5.5025   -4.4590    0.4196 C   0  0  0  0  0  0  0  0  0  0  0  0
    6.6385   -4.9025    0.5768 O   0  0  0  0  0  0  0  0  0  0  0  0
    4.2663   -5.3211    0.6928 C   0  0  1  0  0  0  0  0  0  0  0  0
    4.0442   -5.5949    2.1862 C   0  0  1  0  0  0  0  0  0  0  0  0
    4.0139   -4.3274    3.0914 C   0  0  0  0  0  0  0  0  0  0  0  0
    3.1244   -3.2510    2.8190 C   0  0  0  0  0  0  0  0  0  0  0  0
    3.1297   -2.0724    3.5959 C   0  0  0  0  0  0  0  0  0  0  0  0
    2.3201   -0.9819    3.3510 O   0  0  0  0  0  0  0  0  0  0  0  0
    1.5188   -0.9920    2.1746 C   0  0  0  0  0  0  0  0  0  0  0  0
    4.0139   -1.9955    4.6865 C   0  0  0  0  0  0  0  0  0  0  0  0
    4.8605   -3.0712    5.0086 C   0  0  0  0  0  0  0  0  0  0  0  0
    4.8774   -4.2408    4.2174 C   0  0  0  0  0  0  0  0  0  0  0  0
    5.7117   -5.3041    4.4962 O   0  0  0  0  0  0  0  0  0  0  0  0
    6.5051   -5.2784    5.6808 C   0  0  0  0  0  0  0  0  0  0  0  0
    4.7156   -8.6659    5.0836 H   0  0  0  0  0  0  0  0  0  0  0  0
    5.0401   -7.4451    3.8375 H   0  0  0  0  0  0  0  0  0  0  0  0
    4.0236   -8.8434    3.4665 H   0  0  0  0  0  0  0  0  0  0  0  0
    0.5437   -8.1119    1.4026 H   0  0  0  0  0  0  0  0  0  0  0  0
   -0.2684   -6.8500    0.5054 H   0  0  0  0  0  0  0  0  0  0  0  0
   -0.2386   -6.7682    2.2562 H   0  0  0  0  0  0  0  0  0  0  0  0
    2.0419   -3.4087   -1.2042 H   0  0  0  0  0  0  0  0  0  0  0  0
    3.0888   -7.5125    1.9902 H   0  0  0  0  0  0  0  0  0  0  0  0
    5.6486   -2.8250   -2.7455 H   0  0  0  0  0  0  0  0  0  0  0  0
    3.9967   -3.2725   -3.2348 H   0  0  0  0  0  0  0  0  0  0  0  0
    5.0210   -4.4556   -2.4171 H   0  0  0  0  0  0  0  0  0  0  0  0
    4.6722   -0.7859   -1.4889 H   0  0  0  0  0  0  0  0  0  0  0  0
    3.4388   -1.0605   -0.2779 H   0  0  0  0  0  0  0  0  0  0  0  0
    3.0255   -1.2801   -1.9754 H   0  0  0  0  0  0  0  0  0  0  0  0
    6.2225   -2.5659   -0.3028 H   0  0  0  0  0  0  0  0  0  0  0  0
    4.9522   -2.4748    0.9004 H   0  0  0  0  0  0  0  0  0  0  0  0
    4.4647   -6.2848    0.2325 H   0  0  0  0  0  0  0  0  0  0  0  0
    4.9460   -6.1443    2.4173 H   0  0  0  0  0  0  0  0  0  0  0  0
    2.4391   -3.3280    1.9993 H   0  0  0  0  0  0  0  0  0  0  0  0
    0.9666   -0.0594    2.0814 H   0  0  0  0  0  0  0  0  0  0  0  0
    0.8084   -1.8170    2.1639 H   0  0  0  0  0  0  0  0  0  0  0  0
    2.1548   -1.0773    1.3005 H   0  0  0  0  0  0  0  0  0  0  0  0
    4.0332   -1.0938    5.2851 H   0  0  0  0  0  0  0  0  0  0  0  0
    5.5076   -2.9604    5.8677 H   0  0  0  0  0  0  0  0  0  0  0  0
    7.0905   -6.1931    5.7552 H   0  0  0  0  0  0  0  0  0  0  0  0
    5.8911   -5.2174    6.5771 H   0  0  0  0  0  0  0  0  0  0  0  0
    7.2108   -4.4510    5.6796 H   0  0  0  0  0  0  0  0  0  0  0  0
  1  2  1  0
  1 29  1  0
  1 30  1  0
  1 31  1  0
  2  3  1  0
  3  4  2  0
  3  5  1  0
  5 18  1  0
  5 36  1  6
  5  6  1  0
  6  7  1  0
  6  8  2  0
  7 32  1  0
  7 33  1  0
  7 34  1  0
  8  9  1  0
  9 17  1  0
  9 10  2  0
 10 11  1  0
 10 35  1  0
 11 12  1  0
 11 13  1  0
 11 14  1  0
 12 37  1  0
 12 38  1  0
 12 39  1  0
 13 40  1  0
 13 41  1  0
 13 42  1  0
 14 15  1  0
 14 43  1  0
 14 44  1  0
 15 16  2  0
 15 17  1  0
 17 18  1  0
 17 45  1  6
 18 19  1  0
 18 46  1  1
 19 26  1  0
 19 20  2  0
 20 21  1  0
 20 47  1  0
 21 22  1  0
 21 24  2  0
 22 23  1  0
 23 48  1  0
 23 49  1  0
 23 50  1  0
 24 25  1  0
 24 51  1  0
 25 26  2  0
 25 52  1  0
 26 27  1  0
 27 28  1  0
 28 53  1  0
 28 54  1  0
 28 55  1  0
M  END
>  <i_m_ct_stereo_status>  (313) 
1

>  <s_m_source_file>  (313) 
/var/tmp/pbs.5076255.sched01/tmparsu8qf0/123n9qi1oz7.sdf

>  <i_m_source_file_index>  (313) 
11

>  <i_lp_mmshare_version>  (313) 
48012

>  <i_f3d_flags>  (313) 
0

>  <s_epik_input>  (313) 
W0NIMl0xQyhbQ0gzXSkoW0NIM10pW0NIMl1DKD1PKVtDQEhdKEMxMilbQ0BIXShDKD1DKE49MilbQ0gzXSlDKD1PKU9bQ0gzXSljM1tjSF1jKE9bQ0gzXSlbY0hdW2NIXWMzT1tDSDNd

>  <s_epik_cmdline>  (313) 
J2VwaWtfcHl0aG9uJywgJy1waHQnLCAnMi4wJywgJy1waCcsICc3LjAnLCAnLXRuJywgJzgnLCAnLW1hJywgJzIwMCcsICctaW1hZScsICc8aW5maWxlLm1hZT4nLCAnLW9tYWUnLCAnPG91dGZpbGUubWFlPic=

>  <r_lp_tautomer_probability>  (313) 
0.499981

>  <r_epik_Ionization_Penalty>  (313) 
2.87525e-11

>  <r_epik_Ionization_Penalty_Charging>  (313) 
0

>  <r_epik_Ionization_Penalty_Neutral>  (313) 
2.87525e-11

>  <r_epik_State_Penalty>  (313) 
0.41068

>  <r_epik_Charging_Adjusted_Penalty>  (313) 
0.41068

>  <i_epik_Tot_Q>  (313) 
0

>  <i_epik_Tot_abs_Q>  (313) 
0

>  <s_epik_Chemistry_Notes>  (313) 
This compound has an ester and may undergo hydrolysis at high or low pH. This compound has an imine and may undergo hydrolysis.

>  <s_lp_Force_Field>  (313) 
OPLS3e

>  <r_lp_Energy>  (313) 
29.6745

>  <b_lp_Chiralities_Consistent>  (313) 
1

>  <s_lp_Variant>  (313) 
99:0-2

>  <s_i_glide_gridfile>  (313) 
pfpi4k_grid

>  <i_i_glide_lignum>  (313) 
11

>  <i_i_glide_rotatable_bonds>  (313) 
5

>  <r_i_docking_score>  (313) 
-2.45466

>  <r_i_glide_ligand_efficiency>  (313) 
-0.0876664

>  <r_i_glide_ligand_efficiency_sa>  (313) 
-0.266207

>  <r_i_glide_ligand_efficiency_ln>  (313) 
-0.566607

>  <r_i_glide_gscore>  (313) 
-2.45466

>  <r_i_glide_lipo>  (313) 
-0.185182

>  <r_i_glide_hbond>  (313) 
-0.097286

>  <r_i_glide_metal>  (313) 
-0

>  <r_i_glide_rewards>  (313) 
-0.882234

>  <r_i_glide_evdw>  (313) 
-22.6057

>  <r_i_glide_ecoul>  (313) 
-2.42827

>  <r_i_glide_erotb>  (313) 
0.261864

>  <r_i_glide_esite>  (313) 
-0.057296

>  <r_i_glide_emodel>  (313) 
-24.8058

>  <r_i_glide_energy>  (313) 
-25.0339

>  <r_i_glide_einternal>  (313) 
6.45032

>  <r_i_glide_intrahb_reward>  (313) 
-0

>  <i_i_glide_confnum>  (313) 
2

>  <i_i_glide_posenum>  (313) 
34

>  <r_i_glide_eff_state_penalty>  (313) 
0

>  <ligand_id>  (313) 
99

>  <original_smiles>  (313) 
COC(=O)C1=C(C)N=C2CC(C)(C)CC(=O)C2C1c1cc(OC)ccc1OC

>  <smiles>  (313) 
[H]C1=C2N=C(C([H])([H])[H])C([H])(C(=O)OC([H])([H])[H])C([H])(c3c([H])c(OC([H])([H])[H])c([H])c([H])c3OC([H])([H])[H])C2([H])C(=O)C([H])([H])C1(C([H])([H])[H])C([H])([H])[H]

$$$$
99:1:1
     RDKit          3D

 55 57  0  0  1  0  0  0  0  0999 V2000
    4.7448   -3.5281    5.3809 C   0  0  0  0  0  0  0  0  0  0  0  0
    3.3112   -3.5393    5.4064 O   0  0  0  0  0  0  0  0  0  0  0  0
    2.5459   -3.8531    4.3183 C   0  0  0  0  0  0  0  0  0  0  0  0
    1.3125   -3.8536    4.3609 O   0  0  0  0  0  0  0  0  0  0  0  0
    3.3257   -4.1830    3.0091 C   0  0  1  0  0  0  0  0  0  0  0  0
    2.5227   -4.9277    1.8991 C   0  0  0  0  0  0  0  0  0  0  0  0
    1.6127   -6.0871    2.3117 C   0  0  0  0  0  0  0  0  0  0  0  0
    2.6141   -4.6890    0.6532 N   0  0  0  0  0  0  0  0  0  0  0  0
    3.5207   -3.7452    0.1687 C   0  0  0  0  0  0  0  0  0  0  0  0
    3.3335   -3.2666   -1.0789 C   0  0  0  0  0  0  0  0  0  0  0  0
    4.2112   -2.2103   -1.7246 C   0  0  0  0  0  0  0  0  0  0  0  0
    5.2341   -2.9485   -2.6021 C   0  0  0  0  0  0  0  0  0  0  0  0
    3.3240   -1.2903   -2.5686 C   0  0  0  0  0  0  0  0  0  0  0  0
    4.9087   -1.3279   -0.6597 C   0  0  0  0  0  0  0  0  0  0  0  0
    5.5314   -2.1619    0.4399 C   0  0  0  0  0  0  0  0  0  0  0  0
    6.6744   -1.9342    0.8542 O   0  0  0  0  0  0  0  0  0  0  0  0
    4.6620   -3.2757    1.0409 C   0  0  1  0  0  0  0  0  0  0  0  0
    4.1534   -2.9533    2.4479 C   0  0  1  0  0  0  0  0  0  0  0  0
    3.4472   -1.5833    2.5816 C   0  0  0  0  0  0  0  0  0  0  0  0
    2.1200   -1.3873    2.1001 C   0  0  0  0  0  0  0  0  0  0  0  0
    1.4825   -0.1259    2.1899 C   0  0  0  0  0  0  0  0  0  0  0  0
    0.2251    0.0341    1.6940 O   0  0  0  0  0  0  0  0  0  0  0  0
   -0.3916    1.3192    1.7992 C   0  0  0  0  0  0  0  0  0  0  0  0
    2.1865    0.9443    2.7894 C   0  0  0  0  0  0  0  0  0  0  0  0
    3.4666    0.7518    3.3080 C   0  0  0  0  0  0  0  0  0  0  0  0
    4.1125   -0.4936    3.2133 C   0  0  0  0  0  0  0  0  0  0  0  0
    5.4013   -0.6811    3.6782 O   0  0  0  0  0  0  0  0  0  0  0  0
    5.8507    0.1681    4.7352 C   0  0  0  0  0  0  0  0  0  0  0  0
    5.1827   -3.3051    6.3629 H   0  0  0  0  0  0  0  0  0  0  0  0
    5.0954   -2.7544    4.7598 H   0  0  0  0  0  0  0  0  0  0  0  0
    5.1215   -4.4991    5.0333 H   0  0  0  0  0  0  0  0  0  0  0  0
    2.1671   -6.8352    2.8843 H   0  0  0  0  0  0  0  0  0  0  0  0
    1.2268   -6.5755    1.4141 H   0  0  0  0  0  0  0  0  0  0  0  0
    0.7492   -5.7446    2.8840 H   0  0  0  0  0  0  0  0  0  0  0  0
    2.5088   -3.6422   -1.6415 H   0  0  0  0  0  0  0  0  0  0  0  0
    4.0520   -4.9367    3.2943 H   0  0  0  0  0  0  0  0  0  0  0  0
    5.9057   -2.2824   -3.0970 H   0  0  0  0  0  0  0  0  0  0  0  0
    4.7467   -3.5414   -3.3753 H   0  0  0  0  0  0  0  0  0  0  0  0
    5.8507   -3.6291   -2.0155 H   0  0  0  0  0  0  0  0  0  0  0  0
    3.8860   -0.4900   -3.0447 H   0  0  0  0  0  0  0  0  0  0  0  0
    2.6118   -0.7970   -1.9247 H   0  0  0  0  0  0  0  0  0  0  0  0
    2.7672   -1.8366   -3.3305 H   0  0  0  0  0  0  0  0  0  0  0  0
    5.6681   -0.6875   -1.1047 H   0  0  0  0  0  0  0  0  0  0  0  0
    4.1860   -0.6727   -0.1678 H   0  0  0  0  0  0  0  0  0  0  0  0
    5.3280   -4.1292    1.1606 H   0  0  0  0  0  0  0  0  0  0  0  0
    5.1043   -2.9122    2.9164 H   0  0  0  0  0  0  0  0  0  0  0  0
    1.5914   -2.2153    1.6558 H   0  0  0  0  0  0  0  0  0  0  0  0
   -1.3932    1.3274    1.3779 H   0  0  0  0  0  0  0  0  0  0  0  0
    0.1868    2.0716    1.2719 H   0  0  0  0  0  0  0  0  0  0  0  0
   -0.4810    1.6147    2.8397 H   0  0  0  0  0  0  0  0  0  0  0  0
    1.7705    1.9382    2.8618 H   0  0  0  0  0  0  0  0  0  0  0  0
    3.9352    1.6413    3.7169 H   0  0  0  0  0  0  0  0  0  0  0  0
    6.8722   -0.0914    4.9972 H   0  0  0  0  0  0  0  0  0  0  0  0
    5.2497    0.0409    5.6364 H   0  0  0  0  0  0  0  0  0  0  0  0
    5.8713    1.2256    4.4771 H   0  0  0  0  0  0  0  0  0  0  0  0
  1  2  1  0
  1 29  1  0
  1 30  1  0
  1 31  1  0
  2  3  1  0
  3  4  2  0
  3  5  1  0
  5 18  1  0
  5 36  1  1
  5  6  1  0
  6  7  1  0
  6  8  2  0
  7 32  1  0
  7 33  1  0
  7 34  1  0
  8  9  1  0
  9 17  1  0
  9 10  2  0
 10 11  1  0
 10 35  1  0
 11 12  1  0
 11 13  1  0
 11 14  1  0
 12 37  1  0
 12 38  1  0
 12 39  1  0
 13 40  1  0
 13 41  1  0
 13 42  1  0
 14 15  1  0
 14 43  1  0
 14 44  1  0
 15 16  2  0
 15 17  1  0
 17 18  1  0
 17 45  1  1
 18 19  1  0
 18 46  1  1
 19 26  1  0
 19 20  2  0
 20 21  1  0
 20 47  1  0
 21 22  1  0
 21 24  2  0
 22 23  1  0
 23 48  1  0
 23 49  1  0
 23 50  1  0
 24 25  1  0
 24 51  1  0
 25 26  2  0
 25 52  1  0
 26 27  1  0
 27 28  1  0
 28 53  1  0
 28 54  1  0
 28 55  1  0
M  END
>  <i_m_ct_stereo_status>  (314) 
1

>  <s_m_source_file>  (314) 
/var/tmp/pbs.5076255.sched01/tmparsu8qf0/123n9qi1oz7.sdf

>  <i_m_source_file_index>  (314) 
11

>  <i_lp_mmshare_version>  (314) 
48012

>  <i_f3d_flags>  (314) 
0

>  <s_epik_input>  (314) 
W0NIMl0xQyhbQ0gzXSkoW0NIM10pW0NIMl1DKD1PKVtDQEhdKEMxMilbQ0BIXShDKD1DKE49MilbQ0gzXSlDKD1PKU9bQ0gzXSljM1tjSF1jKE9bQ0gzXSlbY0hdW2NIXWMzT1tDSDNd

>  <s_epik_cmdline>  (314) 
J2VwaWtfcHl0aG9uJywgJy1waHQnLCAnMi4wJywgJy1waCcsICc3LjAnLCAnLXRuJywgJzgnLCAnLW1hJywgJzIwMCcsICctaW1hZScsICc8aW5maWxlLm1hZT4nLCAnLW9tYWUnLCAnPG91dGZpbGUubWFlPic=

>  <r_lp_tautomer_probability>  (314) 
0.499981

>  <r_epik_Ionization_Penalty>  (314) 
2.87525e-11

>  <r_epik_Ionization_Penalty_Charging>  (314) 
0

>  <r_epik_Ionization_Penalty_Neutral>  (314) 
2.87525e-11

>  <r_epik_State_Penalty>  (314) 
0.41068

>  <r_epik_Charging_Adjusted_Penalty>  (314) 
0.41068

>  <i_epik_Tot_Q>  (314) 
0

>  <i_epik_Tot_abs_Q>  (314) 
0

>  <s_epik_Chemistry_Notes>  (314) 
This compound has an ester and may undergo hydrolysis at high or low pH. This compound has an imine and may undergo hydrolysis.

>  <s_lp_Force_Field>  (314) 
OPLS3e

>  <r_lp_Energy>  (314) 
29.6745

>  <b_lp_Chiralities_Consistent>  (314) 
1

>  <s_lp_Variant>  (314) 
99:0-2

>  <s_i_glide_gridfile>  (314) 
pfpi4k_grid

>  <i_i_glide_lignum>  (314) 
11

>  <i_i_glide_rotatable_bonds>  (314) 
5

>  <r_i_docking_score>  (314) 
-2.2576

>  <r_i_glide_ligand_efficiency>  (314) 
-0.0806286

>  <r_i_glide_ligand_efficiency_sa>  (314) 
-0.244836

>  <r_i_glide_ligand_efficiency_ln>  (314) 
-0.52112

>  <r_i_glide_gscore>  (314) 
-2.2576

>  <r_i_glide_lipo>  (314) 
-0.411174

>  <r_i_glide_hbond>  (314) 
-0.0422786

>  <r_i_glide_metal>  (314) 
-0

>  <r_i_glide_rewards>  (314) 
-0.848571

>  <r_i_glide_evdw>  (314) 
-25.1532

>  <r_i_glide_ecoul>  (314) 
0.369803

>  <r_i_glide_erotb>  (314) 
0.261864

>  <r_i_glide_esite>  (314) 
-0.0152525

>  <r_i_glide_emodel>  (314) 
-21.6666

>  <r_i_glide_energy>  (314) 
-24.7834

>  <r_i_glide_einternal>  (314) 
9.8614

>  <r_i_glide_intrahb_reward>  (314) 
-0

>  <i_i_glide_confnum>  (314) 
1

>  <i_i_glide_posenum>  (314) 
11

>  <r_i_glide_eff_state_penalty>  (314) 
0

>  <ligand_id>  (314) 
99

>  <original_smiles>  (314) 
COC(=O)C1=C(C)N=C2CC(C)(C)CC(=O)C2C1c1cc(OC)ccc1OC

>  <smiles>  (314) 
[H]C1=C2N=C(C([H])([H])[H])C([H])(C(=O)OC([H])([H])[H])C([H])(c3c([H])c(OC([H])([H])[H])c([H])c([H])c3OC([H])([H])[H])C2([H])C(=O)C([H])([H])C1(C([H])([H])[H])C([H])([H])[H]

$$$$
99:1:2
     RDKit          3D

 55 57  0  0  1  0  0  0  0  0999 V2000
    1.1573   -3.2683    4.8630 C   0  0  0  0  0  0  0  0  0  0  0  0
    1.8272   -3.6624    3.6764 O   0  0  0  0  0  0  0  0  0  0  0  0
    3.0446   -4.2272    3.7151 C   0  0  0  0  0  0  0  0  0  0  0  0
    3.6249   -4.5929    4.7397 O   0  0  0  0  0  0  0  0  0  0  0  0
    3.6992   -4.3918    2.3431 C   0  0  1  0  0  0  0  0  0  0  0  0
    2.7858   -5.0565    1.2915 C   0  0  0  0  0  0  0  0  0  0  0  0
    1.9610   -6.2510    1.7448 C   0  0  0  0  0  0  0  0  0  0  0  0
    2.7094   -4.6954    0.0839 N   0  0  0  0  0  0  0  0  0  0  0  0
    3.5220   -3.6993   -0.4462 C   0  0  0  0  0  0  0  0  0  0  0  0
    3.1603   -3.1434   -1.6125 C   0  0  0  0  0  0  0  0  0  0  0  0
    3.9157   -2.0194   -2.3197 C   0  0  0  0  0  0  0  0  0  0  0  0
    4.8087   -2.6562   -3.3988 C   0  0  0  0  0  0  0  0  0  0  0  0
    2.9161   -1.0689   -2.9912 C   0  0  0  0  0  0  0  0  0  0  0  0
    4.7397   -1.2190   -1.2908 C   0  0  0  0  0  0  0  0  0  0  0  0
    5.5300   -2.1098   -0.3415 C   0  0  0  0  0  0  0  0  0  0  0  0
    6.7237   -1.8876   -0.1290 O   0  0  0  0  0  0  0  0  0  0  0  0
    4.7823   -3.2863    0.3124 C   0  0  1  0  0  0  0  0  0  0  0  0
    4.4216   -3.1037    1.8048 C   0  0  1  0  0  0  0  0  0  0  0  0
    3.7277   -1.7433    2.0928 C   0  0  0  0  0  0  0  0  0  0  0  0
    2.3746   -1.5140    1.7876 C   0  0  0  0  0  0  0  0  0  0  0  0
    1.7398   -0.2811    2.0917 C   0  0  0  0  0  0  0  0  0  0  0  0
    0.3808   -0.1752    1.8679 O   0  0  0  0  0  0  0  0  0  0  0  0
   -0.2079    1.1152    1.9524 C   0  0  0  0  0  0  0  0  0  0  0  0
    2.5148    0.7503    2.6600 C   0  0  0  0  0  0  0  0  0  0  0  0
    3.8405    0.5247    2.9743 C   0  0  0  0  0  0  0  0  0  0  0  0
    4.4839   -0.7000    2.6788 C   0  0  0  0  0  0  0  0  0  0  0  0
    5.8184   -0.8845    2.9199 O   0  0  0  0  0  0  0  0  0  0  0  0
    6.4973    0.0921    3.6954 C   0  0  0  0  0  0  0  0  0  0  0  0
    0.2703   -2.7178    4.5774 H   0  0  0  0  0  0  0  0  0  0  0  0
    1.7655   -2.6121    5.4845 H   0  0  0  0  0  0  0  0  0  0  0  0
    0.8650   -4.1432    5.4334 H   0  0  0  0  0  0  0  0  0  0  0  0
    2.5970   -7.0238    2.1778 H   0  0  0  0  0  0  0  0  0  0  0  0
    1.4569   -6.6779    0.8841 H   0  0  0  0  0  0  0  0  0  0  0  0
    1.1975   -5.9553    2.4662 H   0  0  0  0  0  0  0  0  0  0  0  0
    2.2642   -3.4851   -2.1120 H   0  0  0  0  0  0  0  0  0  0  0  0
    4.4952   -5.1150    2.4991 H   0  0  0  0  0  0  0  0  0  0  0  0
    5.3913   -1.8979   -3.9128 H   0  0  0  0  0  0  0  0  0  0  0  0
    4.2041   -3.2026   -4.1268 H   0  0  0  0  0  0  0  0  0  0  0  0
    5.5132   -3.3727   -2.9719 H   0  0  0  0  0  0  0  0  0  0  0  0
    3.4301   -0.2423   -3.4937 H   0  0  0  0  0  0  0  0  0  0  0  0
    2.2095   -0.6358   -2.3001 H   0  0  0  0  0  0  0  0  0  0  0  0
    2.3025   -1.5956   -3.7250 H   0  0  0  0  0  0  0  0  0  0  0  0
    5.4084   -0.5308   -1.8062 H   0  0  0  0  0  0  0  0  0  0  0  0
    4.0719   -0.6075   -0.6789 H   0  0  0  0  0  0  0  0  0  0  0  0
    5.4529   -4.1475    0.2425 H   0  0  0  0  0  0  0  0  0  0  0  0
    5.3808   -3.1076    2.3386 H   0  0  0  0  0  0  0  0  0  0  0  0
    1.7638   -2.2795    1.3316 H   0  0  0  0  0  0  0  0  0  0  0  0
   -1.2682    1.1113    1.6744 H   0  0  0  0  0  0  0  0  0  0  0  0
    0.3061    1.7958    1.2695 H   0  0  0  0  0  0  0  0  0  0  0  0
   -0.1469    1.5054    2.9697 H   0  0  0  0  0  0  0  0  0  0  0  0
    2.1481    1.7446    2.9095 H   0  0  0  0  0  0  0  0  0  0  0  0
    4.3570    1.3347    3.4424 H   0  0  0  0  0  0  0  0  0  0  0  0
    7.5699   -0.0469    3.6579 H   0  0  0  0  0  0  0  0  0  0  0  0
    6.1374    0.1016    4.7221 H   0  0  0  0  0  0  0  0  0  0  0  0
    6.3888    1.0756    3.2801 H   0  0  0  0  0  0  0  0  0  0  0  0
  1  2  1  0
  1 29  1  0
  1 30  1  0
  1 31  1  0
  2  3  1  0
  3  4  2  0
  3  5  1  0
  5 18  1  0
  5 36  1  1
  5  6  1  0
  6  7  1  0
  6  8  2  0
  7 32  1  0
  7 33  1  0
  7 34  1  0
  8  9  1  0
  9 17  1  0
  9 10  2  0
 10 11  1  0
 10 35  1  0
 11 12  1  0
 11 13  1  0
 11 14  1  0
 12 37  1  0
 12 38  1  0
 12 39  1  0
 13 40  1  0
 13 41  1  0
 13 42  1  0
 14 15  1  0
 14 43  1  0
 14 44  1  0
 15 16  2  0
 15 17  1  0
 17 18  1  0
 17 45  1  1
 18 19  1  0
 18 46  1  1
 19 26  1  0
 19 20  2  0
 20 21  1  0
 20 47  1  0
 21 22  1  0
 21 24  2  0
 22 23  1  0
 23 48  1  0
 23 49  1  0
 23 50  1  0
 24 25  1  0
 24 51  1  0
 25 26  2  0
 25 52  1  0
 26 27  1  0
 27 28  1  0
 28 53  1  0
 28 54  1  0
 28 55  1  0
M  END
>  <i_m_ct_stereo_status>  (315) 
1

>  <s_m_source_file>  (315) 
/var/tmp/pbs.5076255.sched01/tmparsu8qf0/123n9qi1oz7.sdf

>  <i_m_source_file_index>  (315) 
11

>  <i_lp_mmshare_version>  (315) 
48012

>  <i_f3d_flags>  (315) 
0

>  <s_epik_input>  (315) 
W0NIMl0xQyhbQ0gzXSkoW0NIM10pW0NIMl1DKD1PKVtDQEhdKEMxMilbQ0BIXShDKD1DKE49MilbQ0gzXSlDKD1PKU9bQ0gzXSljM1tjSF1jKE9bQ0gzXSlbY0hdW2NIXWMzT1tDSDNd

>  <s_epik_cmdline>  (315) 
J2VwaWtfcHl0aG9uJywgJy1waHQnLCAnMi4wJywgJy1waCcsICc3LjAnLCAnLXRuJywgJzgnLCAnLW1hJywgJzIwMCcsICctaW1hZScsICc8aW5maWxlLm1hZT4nLCAnLW9tYWUnLCAnPG91dGZpbGUubWFlPic=

>  <r_lp_tautomer_probability>  (315) 
0.499981

>  <r_epik_Ionization_Penalty>  (315) 
2.87525e-11

>  <r_epik_Ionization_Penalty_Charging>  (315) 
0

>  <r_epik_Ionization_Penalty_Neutral>  (315) 
2.87525e-11

>  <r_epik_State_Penalty>  (315) 
0.41068

>  <r_epik_Charging_Adjusted_Penalty>  (315) 
0.41068

>  <i_epik_Tot_Q>  (315) 
0

>  <i_epik_Tot_abs_Q>  (315) 
0

>  <s_epik_Chemistry_Notes>  (315) 
This compound has an ester and may undergo hydrolysis at high or low pH. This compound has an imine and may undergo hydrolysis.

>  <s_lp_Force_Field>  (315) 
OPLS3e

>  <r_lp_Energy>  (315) 
29.6745

>  <b_lp_Chiralities_Consistent>  (315) 
1

>  <s_lp_Variant>  (315) 
99:0-2

>  <s_i_glide_gridfile>  (315) 
pfpi4k_grid

>  <i_i_glide_lignum>  (315) 
11

>  <i_i_glide_rotatable_bonds>  (315) 
5

>  <r_i_docking_score>  (315) 
-2.07406

>  <r_i_glide_ligand_efficiency>  (315) 
-0.0740736

>  <r_i_glide_ligand_efficiency_sa>  (315) 
-0.224931

>  <r_i_glide_ligand_efficiency_ln>  (315) 
-0.478754

>  <r_i_glide_gscore>  (315) 
-2.07406

>  <r_i_glide_lipo>  (315) 
-0.343983

>  <r_i_glide_hbond>  (315) 
-0.0829171

>  <r_i_glide_metal>  (315) 
-0

>  <r_i_glide_rewards>  (315) 
-0.781033

>  <r_i_glide_evdw>  (315) 
-20.9269

>  <r_i_glide_ecoul>  (315) 
-0.354131

>  <r_i_glide_erotb>  (315) 
0.261864

>  <r_i_glide_esite>  (315) 
-0.0285256

>  <r_i_glide_emodel>  (315) 
-21.9103

>  <r_i_glide_energy>  (315) 
-21.2811

>  <r_i_glide_einternal>  (315) 
4.35355

>  <r_i_glide_intrahb_reward>  (315) 
-0

>  <i_i_glide_confnum>  (315) 
4

>  <i_i_glide_posenum>  (315) 
9

>  <r_i_glide_eff_state_penalty>  (315) 
0

>  <ligand_id>  (315) 
99

>  <original_smiles>  (315) 
COC(=O)C1=C(C)N=C2CC(C)(C)CC(=O)C2C1c1cc(OC)ccc1OC

>  <smiles>  (315) 
[H]C1=C2N=C(C([H])([H])[H])C([H])(C(=O)OC([H])([H])[H])C([H])(c3c([H])c(OC([H])([H])[H])c([H])c([H])c3OC([H])([H])[H])C2([H])C(=O)C([H])([H])C1(C([H])([H])[H])C([H])([H])[H]

$$$$
100:0:0
     RDKit          3D

 57 62  0  0  1  0  0  0  0  0999 V2000
    4.3346    1.2853    4.1370 C   0  0  0  0  0  0  0  0  0  0  0  0
    5.3784    0.4393    4.0800 C   0  0  0  0  0  0  0  0  0  0  0  0
    6.6532    0.7057    4.8693 C   0  0  0  0  0  0  0  0  0  0  0  0
    5.3694   -0.8546    3.2701 C   0  0  2  0  0  0  0  0  0  0  0  0
    6.5780   -1.0461    2.4667 O   0  0  0  0  0  0  0  0  0  0  0  0
    5.7812   -1.4798    1.3377 C   0  0  1  0  0  0  0  0  0  0  0  0
    5.8849   -0.7541    0.1150 O   0  0  0  0  0  0  0  0  0  0  0  0
    4.6767   -0.8240   -0.6269 C   0  0  1  0  0  0  0  0  0  0  0  0
    4.9415   -1.0227   -1.9863 O   0  0  0  0  0  0  0  0  0  0  0  0
    3.9729   -0.4495   -2.8552 C   0  0  0  0  0  0  0  0  0  0  0  0
    3.7748   -2.0109   -0.0730 C   0  0  1  0  0  0  0  0  0  0  0  0
    4.7074   -3.2363   -0.1829 C   0  0  2  0  0  0  0  0  0  0  0  0
    3.7814   -4.4752   -0.0755 C   0  0  0  0  0  0  0  0  0  0  0  0
    2.9290   -4.3727    1.2077 C   0  0  0  0  0  0  0  0  0  0  0  0
    3.5896   -3.3422    2.1438 C   0  0  1  0  0  0  0  0  0  0  0  0
    5.1060   -3.7311    2.2259 C   0  0  1  0  0  0  0  0  0  0  0  0
    5.3426   -5.1395    2.2609 O   0  0  0  0  0  0  0  0  0  0  0  0
    6.6519   -5.5079    2.6847 C   0  0  0  0  0  0  0  0  0  0  0  0
    5.7340   -3.0265    1.0050 C   0  0  2  0  0  0  0  0  0  0  0  0
    3.4305   -1.8821    1.4967 C   0  0  2  0  0  0  0  0  0  0  0  0
    2.0952   -1.3008    1.6802 N   0  0  0  0  0  0  0  0  0  0  0  0
    1.4642   -1.0446    2.8404 C   0  0  0  0  0  0  0  0  0  0  0  0
    1.7191   -1.5987    3.9091 O   0  0  0  0  0  0  0  0  0  0  0  0
    0.4196    0.0306    2.7601 C   0  0  0  0  0  0  0  0  0  0  0  0
    0.3308    0.9773    1.8312 N   0  0  0  0  0  0  0  0  0  0  0  0
   -0.7523    1.7310    2.2221 N   0  0  0  0  0  0  0  0  0  0  0  0
   -1.2694    1.2884    3.3283 N   0  0  0  0  0  0  0  0  0  0  0  0
   -0.5393    0.2049    3.6846 N   0  0  0  0  0  0  0  0  0  0  0  0
   -0.8852   -0.5211    4.8911 C   0  0  0  0  0  0  0  0  0  0  0  0
    4.5169   -0.9121    1.9927 C   0  0  1  0  0  0  0  0  0  0  0  0
    4.3864    2.1849    4.7364 H   0  0  0  0  0  0  0  0  0  0  0  0
    3.4193    1.1083    3.5913 H   0  0  0  0  0  0  0  0  0  0  0  0
    7.5271    0.7243    4.2167 H   0  0  0  0  0  0  0  0  0  0  0  0
    6.8058   -0.0682    5.6197 H   0  0  0  0  0  0  0  0  0  0  0  0
    6.6120    1.6586    5.3966 H   0  0  0  0  0  0  0  0  0  0  0  0
    5.1881   -1.6473    3.9873 H   0  0  0  0  0  0  0  0  0  0  0  0
    4.2138    0.1462   -0.4809 H   0  0  0  0  0  0  0  0  0  0  0  0
    4.2175   -0.6765   -3.8926 H   0  0  0  0  0  0  0  0  0  0  0  0
    3.9671    0.6337   -2.7621 H   0  0  0  0  0  0  0  0  0  0  0  0
    2.9664   -0.8207   -2.6579 H   0  0  0  0  0  0  0  0  0  0  0  0
    2.8806   -2.1177   -0.6879 H   0  0  0  0  0  0  0  0  0  0  0  0
    5.2277   -3.2729   -1.1379 H   0  0  0  0  0  0  0  0  0  0  0  0
    3.1156   -4.5170   -0.9342 H   0  0  0  0  0  0  0  0  0  0  0  0
    4.3633   -5.3973   -0.0928 H   0  0  0  0  0  0  0  0  0  0  0  0
    1.9096   -4.0612    0.9843 H   0  0  0  0  0  0  0  0  0  0  0  0
    2.8607   -5.3457    1.6902 H   0  0  0  0  0  0  0  0  0  0  0  0
    3.1675   -3.4208    3.1399 H   0  0  0  0  0  0  0  0  0  0  0  0
    5.5495   -3.3872    3.1473 H   0  0  0  0  0  0  0  0  0  0  0  0
    6.7561   -6.5925    2.6933 H   0  0  0  0  0  0  0  0  0  0  0  0
    6.8467   -5.1603    3.6988 H   0  0  0  0  0  0  0  0  0  0  0  0
    7.4286   -5.1115    2.0306 H   0  0  0  0  0  0  0  0  0  0  0  0
    6.7220   -3.4074    0.7517 H   0  0  0  0  0  0  0  0  0  0  0  0
    1.6920   -0.8734    0.8439 H   0  0  0  0  0  0  0  0  0  0  0  0
   -0.0332   -0.5436    5.5731 H   0  0  0  0  0  0  0  0  0  0  0  0
   -1.1731   -1.5425    4.6379 H   0  0  0  0  0  0  0  0  0  0  0  0
   -1.7196   -0.0321    5.3951 H   0  0  0  0  0  0  0  0  0  0  0  0
    4.3434    0.1204    1.6924 H   0  0  0  0  0  0  0  0  0  0  0  0
  1  2  2  0
  1 31  1  0
  1 32  1  0
  2  3  1  0
  2  4  1  0
  3 33  1  0
  3 34  1  0
  3 35  1  0
  4 30  1  0
  4  5  1  0
  4 36  1  1
  6  5  1  1
  6 19  1  0
  6 30  1  0
  6  7  1  0
  7  8  1  0
  8  9  1  0
  8 11  1  0
  8 37  1  6
  9 10  1  0
 10 38  1  0
 10 39  1  0
 10 40  1  0
 11 20  1  0
 11 12  1  0
 11 41  1  6
 12 19  1  0
 12 13  1  0
 12 42  1  6
 13 14  1  0
 13 43  1  0
 13 44  1  0
 14 15  1  0
 14 45  1  0
 14 46  1  0
 15 16  1  0
 15 20  1  0
 15 47  1  1
 16 17  1  0
 16 19  1  0
 16 48  1  1
 17 18  1  0
 18 49  1  0
 18 50  1  0
 18 51  1  0
 19 52  1  6
 20 21  1  6
 20 30  1  0
 21 22  1  0
 21 53  1  0
 22 23  2  0
 22 24  1  0
 24 28  1  0
 24 25  2  0
 25 26  1  0
 26 27  2  0
 27 28  1  0
 28 29  1  0
 29 54  1  0
 29 55  1  0
 29 56  1  0
 30 57  1  6
M  END
>  <i_m_ct_stereo_status>  (316) 
1

>  <s_m_source_file>  (316) 
/var/tmp/pbs.5076255.sched01/tmparsu8qf0/123n9qi1oz7.sdf

>  <i_m_source_file_index>  (316) 
13

>  <i_lp_mmshare_version>  (316) 
48012

>  <i_f3d_flags>  (316) 
0

>  <s_epik_input>  (316) 
W0NIMl09QyhbQ0gzXSlbQ0BIXShPMSlbQ0BASF0yW0NAQF0oW0NASF0oW0NASF0zW0NASF00W0NAXTEyNSlbQ0BASF0oTzUpT1tDSDNdKShbQ0BASF0oW0NIMl1bQ0gyXTMpW0NASF00T1tDSDNdKVtOSF1DKD1PKWM2bm5ubjZbQ0gzXQ==

>  <s_epik_cmdline>  (316) 
J2VwaWtfcHl0aG9uJywgJy1waHQnLCAnMi4wJywgJy1waCcsICc3LjAnLCAnLXRuJywgJzgnLCAnLW1hJywgJzIwMCcsICctaW1hZScsICc8aW5maWxlLm1hZT4nLCAnLW9tYWUnLCAnPG91dGZpbGUubWFlPic=

>  <r_lp_tautomer_probability>  (316) 
1

>  <r_epik_Ionization_Penalty>  (316) 
5.04948e-05

>  <r_epik_Ionization_Penalty_Charging>  (316) 
0

>  <r_epik_Ionization_Penalty_Neutral>  (316) 
5.04948e-05

>  <r_epik_State_Penalty>  (316) 
-0

>  <r_epik_Charging_Adjusted_Penalty>  (316) 
0

>  <i_epik_Tot_Q>  (316) 
0

>  <i_epik_Tot_abs_Q>  (316) 
0

>  <s_epik_Chemistry_Notes>  (316) 
This compound contains an acetal/aminal-like group ( X-CH(R)-Y where X, Y are N, S, or O) that may be acid/base labile, releasing an aldehyde.

>  <s_lp_Force_Field>  (316) 
OPLS3e

>  <r_lp_Energy>  (316) 
81.7612

>  <b_lp_Chiralities_Consistent>  (316) 
1

>  <s_lp_Variant>  (316) 
100:0-1

>  <s_i_glide_gridfile>  (316) 
pfpi4k_grid

>  <i_i_glide_lignum>  (316) 
13

>  <i_i_glide_rotatable_bonds>  (316) 
6

>  <r_i_docking_score>  (316) 
-3.38885

>  <r_i_glide_ligand_efficiency>  (316) 
-0.112962

>  <r_i_glide_ligand_efficiency_sa>  (316) 
-0.350999

>  <r_i_glide_ligand_efficiency_ln>  (316) 
-0.769984

>  <r_i_glide_gscore>  (316) 
-3.38885

>  <r_i_glide_lipo>  (316) 
-0.813002

>  <r_i_glide_hbond>  (316) 
-0.16

>  <r_i_glide_metal>  (316) 
-0

>  <r_i_glide_rewards>  (316) 
-0.786085

>  <r_i_glide_evdw>  (316) 
-24.8466

>  <r_i_glide_ecoul>  (316) 
-3.06772

>  <r_i_glide_erotb>  (316) 
0.453666

>  <r_i_glide_esite>  (316) 
-0.380948

>  <r_i_glide_emodel>  (316) 
-31.6774

>  <r_i_glide_energy>  (316) 
-27.9143

>  <r_i_glide_einternal>  (316) 
6.97146

>  <r_i_glide_intrahb_reward>  (316) 
-0

>  <i_i_glide_confnum>  (316) 
2

>  <i_i_glide_posenum>  (316) 
3

>  <r_i_glide_eff_state_penalty>  (316) 
0

>  <ligand_id>  (316) 
100

>  <original_smiles>  (316) 
C=C(C)C1OC23OC(OC)C4C5CCC(C(OC)C52)C4(NC(=O)c2nnnn2C)C13

>  <smiles>  (316) 
[H]C([H])=C(C([H])([H])[H])C1([H])OC23OC([H])(OC([H])([H])[H])C4([H])C5([H])C([H])([H])C([H])([H])C([H])(C([H])(OC([H])([H])[H])C25[H])C4(N([H])C(=O)c2nnnn2C([H])([H])[H])C13[H]

$$$$
100:0:1
     RDKit          3D

 57 62  0  0  1  0  0  0  0  0999 V2000
    1.0044   -6.1578    2.0348 C   0  0  0  0  0  0  0  0  0  0  0  0
    1.8403   -5.2239    1.5474 C   0  0  0  0  0  0  0  0  0  0  0  0
    2.2593   -5.2369    0.0890 C   0  0  0  0  0  0  0  0  0  0  0  0
    2.4482   -4.1286    2.4183 C   0  0  2  0  0  0  0  0  0  0  0  0
    1.6733   -3.8614    3.6361 O   0  0  0  0  0  0  0  0  0  0  0  0
    1.8042   -2.4264    3.4150 C   0  0  1  0  0  0  0  0  0  0  0  0
    0.6224   -1.6353    3.2509 O   0  0  0  0  0  0  0  0  0  0  0  0
    0.8664   -0.4888    2.4291 C   0  0  1  0  0  0  0  0  0  0  0  0
    0.2455    0.6412    2.9652 O   0  0  0  0  0  0  0  0  0  0  0  0
   -0.0827    1.6444    2.0087 C   0  0  0  0  0  0  0  0  0  0  0  0
    2.4308   -0.2450    2.3180 C   0  0  1  0  0  0  0  0  0  0  0  0
    2.8742   -0.1274    3.7914 C   0  0  2  0  0  0  0  0  0  0  0  0
    4.2788    0.5289    3.7526 C   0  0  0  0  0  0  0  0  0  0  0  0
    5.2019   -0.2744    2.8016 C   0  0  0  0  0  0  0  0  0  0  0  0
    4.5810   -1.6686    2.5965 C   0  0  1  0  0  0  0  0  0  0  0  0
    4.2270   -2.2093    4.0252 C   0  0  1  0  0  0  0  0  0  0  0  0
    5.1970   -1.8898    5.0234 O   0  0  0  0  0  0  0  0  0  0  0  0
    5.0549   -2.6244    6.2350 C   0  0  0  0  0  0  0  0  0  0  0  0
    2.8251   -1.6257    4.3128 C   0  0  2  0  0  0  0  0  0  0  0  0
    3.2352   -1.5090    1.7274 C   0  0  2  0  0  0  0  0  0  0  0  0
    3.4780   -1.3163    0.2867 N   0  0  0  0  0  0  0  0  0  0  0  0
    4.2425   -2.0501   -0.5392 C   0  0  0  0  0  0  0  0  0  0  0  0
    4.9904   -2.9531   -0.1595 O   0  0  0  0  0  0  0  0  0  0  0  0
    4.0692   -1.7472   -2.0012 C   0  0  0  0  0  0  0  0  0  0  0  0
    3.5182   -0.6705   -2.5443 N   0  0  0  0  0  0  0  0  0  0  0  0
    3.6077   -0.8714   -3.8998 N   0  0  0  0  0  0  0  0  0  0  0  0
    4.1945   -1.9969   -4.1591 N   0  0  0  0  0  0  0  0  0  0  0  0
    4.5017   -2.5700   -2.9763 N   0  0  0  0  0  0  0  0  0  0  0  0
    5.1908   -3.8481   -2.9505 C   0  0  0  0  0  0  0  0  0  0  0  0
    2.2572   -2.6700    1.9705 C   0  0  1  0  0  0  0  0  0  0  0  0
    0.6116   -6.9436    1.4045 H   0  0  0  0  0  0  0  0  0  0  0  0
    0.7063   -6.1657    3.0739 H   0  0  0  0  0  0  0  0  0  0  0  0
    3.3465   -5.2996    0.0142 H   0  0  0  0  0  0  0  0  0  0  0  0
    1.9262   -4.3444   -0.4451 H   0  0  0  0  0  0  0  0  0  0  0  0
    1.8411   -6.1109   -0.4104 H   0  0  0  0  0  0  0  0  0  0  0  0
    3.4790   -4.4186    2.5906 H   0  0  0  0  0  0  0  0  0  0  0  0
    0.4285   -0.6841    1.4505 H   0  0  0  0  0  0  0  0  0  0  0  0
   -0.5240    2.5083    2.5066 H   0  0  0  0  0  0  0  0  0  0  0  0
   -0.8079    1.2775    1.2821 H   0  0  0  0  0  0  0  0  0  0  0  0
    0.7961    1.9944    1.4682 H   0  0  0  0  0  0  0  0  0  0  0  0
    2.6268    0.6709    1.7531 H   0  0  0  0  0  0  0  0  0  0  0  0
    2.2080    0.5056    4.3784 H   0  0  0  0  0  0  0  0  0  0  0  0
    4.1788    1.5512    3.4011 H   0  0  0  0  0  0  0  0  0  0  0  0
    4.7089    0.5902    4.7522 H   0  0  0  0  0  0  0  0  0  0  0  0
    5.3099    0.2017    1.8269 H   0  0  0  0  0  0  0  0  0  0  0  0
    6.2039   -0.3534    3.2257 H   0  0  0  0  0  0  0  0  0  0  0  0
    5.3136   -2.3410    2.1563 H   0  0  0  0  0  0  0  0  0  0  0  0
    4.2136   -3.2894    4.0382 H   0  0  0  0  0  0  0  0  0  0  0  0
    5.8414   -2.3386    6.9333 H   0  0  0  0  0  0  0  0  0  0  0  0
    5.1376   -3.6984    6.0616 H   0  0  0  0  0  0  0  0  0  0  0  0
    4.1005   -2.4301    6.7226 H   0  0  0  0  0  0  0  0  0  0  0  0
    2.5416   -1.6682    5.3642 H   0  0  0  0  0  0  0  0  0  0  0  0
    2.8417   -0.6787   -0.1804 H   0  0  0  0  0  0  0  0  0  0  0  0
    4.6201   -4.5733   -2.3706 H   0  0  0  0  0  0  0  0  0  0  0  0
    6.1792   -3.7294   -2.5049 H   0  0  0  0  0  0  0  0  0  0  0  0
    5.3094   -4.2243   -3.9652 H   0  0  0  0  0  0  0  0  0  0  0  0
    1.4268   -2.6554    1.2703 H   0  0  0  0  0  0  0  0  0  0  0  0
  1  2  2  0
  1 31  1  0
  1 32  1  0
  2  3  1  0
  2  4  1  0
  3 33  1  0
  3 34  1  0
  3 35  1  0
  4 30  1  0
  4  5  1  0
  4 36  1  1
  6  5  1  1
  6 19  1  0
  6 30  1  0
  6  7  1  0
  7  8  1  0
  8  9  1  0
  8 11  1  0
  8 37  1  6
  9 10  1  0
 10 38  1  0
 10 39  1  0
 10 40  1  0
 11 20  1  0
 11 12  1  0
 11 41  1  6
 12 19  1  0
 12 13  1  0
 12 42  1  1
 13 14  1  0
 13 43  1  0
 13 44  1  0
 14 15  1  0
 14 45  1  0
 14 46  1  0
 15 16  1  0
 15 20  1  0
 15 47  1  6
 16 17  1  0
 16 19  1  0
 16 48  1  6
 17 18  1  0
 18 49  1  0
 18 50  1  0
 18 51  1  0
 19 52  1  1
 20 21  1  6
 20 30  1  0
 21 22  1  0
 21 53  1  0
 22 23  2  0
 22 24  1  0
 24 28  1  0
 24 25  2  0
 25 26  1  0
 26 27  2  0
 27 28  1  0
 28 29  1  0
 29 54  1  0
 29 55  1  0
 29 56  1  0
 30 57  1  6
M  END
>  <i_m_ct_stereo_status>  (317) 
1

>  <s_m_source_file>  (317) 
/var/tmp/pbs.5076255.sched01/tmparsu8qf0/123n9qi1oz7.sdf

>  <i_m_source_file_index>  (317) 
13

>  <i_lp_mmshare_version>  (317) 
48012

>  <i_f3d_flags>  (317) 
0

>  <s_epik_input>  (317) 
W0NIMl09QyhbQ0gzXSlbQ0BIXShPMSlbQ0BASF0yW0NAQF0oW0NASF0oW0NASF0zW0NASF00W0NAXTEyNSlbQ0BASF0oTzUpT1tDSDNdKShbQ0BASF0oW0NIMl1bQ0gyXTMpW0NASF00T1tDSDNdKVtOSF1DKD1PKWM2bm5ubjZbQ0gzXQ==

>  <s_epik_cmdline>  (317) 
J2VwaWtfcHl0aG9uJywgJy1waHQnLCAnMi4wJywgJy1waCcsICc3LjAnLCAnLXRuJywgJzgnLCAnLW1hJywgJzIwMCcsICctaW1hZScsICc8aW5maWxlLm1hZT4nLCAnLW9tYWUnLCAnPG91dGZpbGUubWFlPic=

>  <r_lp_tautomer_probability>  (317) 
1

>  <r_epik_Ionization_Penalty>  (317) 
5.04948e-05

>  <r_epik_Ionization_Penalty_Charging>  (317) 
0

>  <r_epik_Ionization_Penalty_Neutral>  (317) 
5.04948e-05

>  <r_epik_State_Penalty>  (317) 
-0

>  <r_epik_Charging_Adjusted_Penalty>  (317) 
0

>  <i_epik_Tot_Q>  (317) 
0

>  <i_epik_Tot_abs_Q>  (317) 
0

>  <s_epik_Chemistry_Notes>  (317) 
This compound contains an acetal/aminal-like group ( X-CH(R)-Y where X, Y are N, S, or O) that may be acid/base labile, releasing an aldehyde.

>  <s_lp_Force_Field>  (317) 
OPLS3e

>  <r_lp_Energy>  (317) 
81.7612

>  <b_lp_Chiralities_Consistent>  (317) 
1

>  <s_lp_Variant>  (317) 
100:0-1

>  <s_i_glide_gridfile>  (317) 
pfpi4k_grid

>  <i_i_glide_lignum>  (317) 
13

>  <i_i_glide_rotatable_bonds>  (317) 
6

>  <r_i_docking_score>  (317) 
-2.82165

>  <r_i_glide_ligand_efficiency>  (317) 
-0.094055

>  <r_i_glide_ligand_efficiency_sa>  (317) 
-0.292251

>  <r_i_glide_ligand_efficiency_ln>  (317) 
-0.641109

>  <r_i_glide_gscore>  (317) 
-2.82165

>  <r_i_glide_lipo>  (317) 
-0.228868

>  <r_i_glide_hbond>  (317) 
-0.0498782

>  <r_i_glide_metal>  (317) 
-0

>  <r_i_glide_rewards>  (317) 
-0.752183

>  <r_i_glide_evdw>  (317) 
-29.1183

>  <r_i_glide_ecoul>  (317) 
-3.76089

>  <r_i_glide_erotb>  (317) 
0.453666

>  <r_i_glide_esite>  (317) 
-0.224335

>  <r_i_glide_emodel>  (317) 
-36.0423

>  <r_i_glide_energy>  (317) 
-32.8792

>  <r_i_glide_einternal>  (317) 
5.37971

>  <r_i_glide_intrahb_reward>  (317) 
-0

>  <i_i_glide_confnum>  (317) 
6

>  <i_i_glide_posenum>  (317) 
21

>  <r_i_glide_eff_state_penalty>  (317) 
0

>  <ligand_id>  (317) 
100

>  <original_smiles>  (317) 
C=C(C)C1OC23OC(OC)C4C5CCC(C(OC)C52)C4(NC(=O)c2nnnn2C)C13

>  <smiles>  (317) 
[H]C([H])=C(C([H])([H])[H])C1([H])OC23OC([H])(OC([H])([H])[H])C4([H])C5([H])C([H])([H])C([H])([H])C([H])(C([H])(OC([H])([H])[H])C25[H])C4(N([H])C(=O)c2nnnn2C([H])([H])[H])C13[H]

$$$$
100:0:2
     RDKit          3D

 57 62  0  0  1  0  0  0  0  0999 V2000
    1.4325   -6.1816    1.0530 C   0  0  0  0  0  0  0  0  0  0  0  0
    1.6064   -6.0340    2.3798 C   0  0  0  0  0  0  0  0  0  0  0  0
    1.0358   -7.0484    3.3566 C   0  0  0  0  0  0  0  0  0  0  0  0
    2.4008   -4.8909    3.0079 C   0  0  2  0  0  0  0  0  0  0  0  0
    1.7669   -4.3539    4.2164 O   0  0  0  0  0  0  0  0  0  0  0  0
    2.0187   -2.9946    3.7528 C   0  0  1  0  0  0  0  0  0  0  0  0
    0.9072   -2.1158    3.5373 O   0  0  0  0  0  0  0  0  0  0  0  0
    1.1916   -1.1387    2.5365 C   0  0  1  0  0  0  0  0  0  0  0  0
    0.7294    0.1194    2.9225 O   0  0  0  0  0  0  0  0  0  0  0  0
    0.3809    0.9694    1.8334 C   0  0  0  0  0  0  0  0  0  0  0  0
    2.7509   -1.0756    2.2776 C   0  0  1  0  0  0  0  0  0  0  0  0
    3.3540   -0.8040    3.6704 C   0  0  2  0  0  0  0  0  0  0  0  0
    4.8202   -0.3400    3.4245 C   0  0  0  0  0  0  0  0  0  0  0  0
    5.5820   -1.3756    2.5559 C   0  0  0  0  0  0  0  0  0  0  0  0
    4.7689   -2.6945    2.5940 C   0  0  1  0  0  0  0  0  0  0  0  0
    4.4930   -2.9792    4.1246 C   0  0  1  0  0  0  0  0  0  0  0  0
    5.5620   -2.6147    4.9939 O   0  0  0  0  0  0  0  0  0  0  0  0
    5.4737   -3.1219    6.3213 C   0  0  0  0  0  0  0  0  0  0  0  0
    3.1929   -2.1920    4.4256 C   0  0  2  0  0  0  0  0  0  0  0  0
    3.3685   -2.4918    1.8296 C   0  0  2  0  0  0  0  0  0  0  0  0
    3.5079   -2.6356    0.3673 N   0  0  0  0  0  0  0  0  0  0  0  0
    4.0298   -1.7902   -0.5373 C   0  0  0  0  0  0  0  0  0  0  0  0
    4.4102   -0.6452   -0.3151 O   0  0  0  0  0  0  0  0  0  0  0  0
    4.1096   -2.3333   -1.9174 C   0  0  0  0  0  0  0  0  0  0  0  0
    4.6144   -3.5062   -2.2658 N   0  0  0  0  0  0  0  0  0  0  0  0
    4.5663   -3.4919   -3.6380 N   0  0  0  0  0  0  0  0  0  0  0  0
    4.0723   -2.3756   -4.0753 N   0  0  0  0  0  0  0  0  0  0  0  0
    3.7996   -1.6084   -3.0034 N   0  0  0  0  0  0  0  0  0  0  0  0
    3.2774   -0.2628   -3.1693 C   0  0  0  0  0  0  0  0  0  0  0  0
    2.3206   -3.5017    2.3425 C   0  0  1  0  0  0  0  0  0  0  0  0
    0.8763   -7.0271    0.6665 H   0  0  0  0  0  0  0  0  0  0  0  0
    1.8431   -5.4837    0.3350 H   0  0  0  0  0  0  0  0  0  0  0  0
    0.3810   -6.5798    4.0925 H   0  0  0  0  0  0  0  0  0  0  0  0
    1.8467   -7.5400    3.8923 H   0  0  0  0  0  0  0  0  0  0  0  0
    0.4659   -7.8274    2.8459 H   0  0  0  0  0  0  0  0  0  0  0  0
    3.4001   -5.2833    3.1642 H   0  0  0  0  0  0  0  0  0  0  0  0
    0.6568   -1.4451    1.6375 H   0  0  0  0  0  0  0  0  0  0  0  0
    0.0889    1.9542    2.2006 H   0  0  0  0  0  0  0  0  0  0  0  0
   -0.4602    0.5601    1.2920 H   0  0  0  0  0  0  0  0  0  0  0  0
    1.2087    1.1097    1.1382 H   0  0  0  0  0  0  0  0  0  0  0  0
    2.9581   -0.2543    1.5914 H   0  0  0  0  0  0  0  0  0  0  0  0
    2.8115   -0.0140    4.1930 H   0  0  0  0  0  0  0  0  0  0  0  0
    4.7933    0.5920    2.8768 H   0  0  0  0  0  0  0  0  0  0  0  0
    5.3316   -0.1417    4.3675 H   0  0  0  0  0  0  0  0  0  0  0  0
    5.7484   -1.0186    1.5467 H   0  0  0  0  0  0  0  0  0  0  0  0
    6.6011   -1.5194    2.8954 H   0  0  0  0  0  0  0  0  0  0  0  0
    5.3392   -3.5153    2.1570 H   0  0  0  0  0  0  0  0  0  0  0  0
    4.3782   -4.0355    4.3249 H   0  0  0  0  0  0  0  0  0  0  0  0
    6.3522   -2.8146    6.8896 H   0  0  0  0  0  0  0  0  0  0  0  0
    5.4409   -4.2119    6.3273 H   0  0  0  0  0  0  0  0  0  0  0  0
    4.5990   -2.7443    6.8487 H   0  0  0  0  0  0  0  0  0  0  0  0
    3.0096   -2.0325    5.4910 H   0  0  0  0  0  0  0  0  0  0  0  0
    3.1033   -3.4644   -0.0400 H   0  0  0  0  0  0  0  0  0  0  0  0
    3.9509    0.4782   -2.7334 H   0  0  0  0  0  0  0  0  0  0  0  0
    2.2964   -0.2082   -2.7016 H   0  0  0  0  0  0  0  0  0  0  0  0
    3.1688   -0.0416   -4.2294 H   0  0  0  0  0  0  0  0  0  0  0  0
    1.4211   -3.5172    1.7385 H   0  0  0  0  0  0  0  0  0  0  0  0
  1  2  2  0
  1 31  1  0
  1 32  1  0
  2  3  1  0
  2  4  1  0
  3 33  1  0
  3 34  1  0
  3 35  1  0
  4 30  1  0
  4  5  1  0
  4 36  1  1
  6  5  1  1
  6 19  1  0
  6 30  1  0
  6  7  1  0
  7  8  1  0
  8  9  1  0
  8 11  1  0
  8 37  1  6
  9 10  1  0
 10 38  1  0
 10 39  1  0
 10 40  1  0
 11 20  1  0
 11 12  1  0
 11 41  1  6
 12 19  1  0
 12 13  1  0
 12 42  1  1
 13 14  1  0
 13 43  1  0
 13 44  1  0
 14 15  1  0
 14 45  1  0
 14 46  1  0
 15 16  1  0
 15 20  1  0
 15 47  1  6
 16 17  1  0
 16 19  1  0
 16 48  1  6
 17 18  1  0
 18 49  1  0
 18 50  1  0
 18 51  1  0
 19 52  1  1
 20 21  1  6
 20 30  1  0
 21 22  1  0
 21 53  1  0
 22 23  2  0
 22 24  1  0
 24 28  1  0
 24 25  2  0
 25 26  1  0
 26 27  2  0
 27 28  1  0
 28 29  1  0
 29 54  1  0
 29 55  1  0
 29 56  1  0
 30 57  1  6
M  END
>  <i_m_ct_stereo_status>  (318) 
1

>  <s_m_source_file>  (318) 
/var/tmp/pbs.5076255.sched01/tmparsu8qf0/123n9qi1oz7.sdf

>  <i_m_source_file_index>  (318) 
13

>  <i_lp_mmshare_version>  (318) 
48012

>  <i_f3d_flags>  (318) 
0

>  <s_epik_input>  (318) 
W0NIMl09QyhbQ0gzXSlbQ0BIXShPMSlbQ0BASF0yW0NAQF0oW0NASF0oW0NASF0zW0NASF00W0NAXTEyNSlbQ0BASF0oTzUpT1tDSDNdKShbQ0BASF0oW0NIMl1bQ0gyXTMpW0NASF00T1tDSDNdKVtOSF1DKD1PKWM2bm5ubjZbQ0gzXQ==

>  <s_epik_cmdline>  (318) 
J2VwaWtfcHl0aG9uJywgJy1waHQnLCAnMi4wJywgJy1waCcsICc3LjAnLCAnLXRuJywgJzgnLCAnLW1hJywgJzIwMCcsICctaW1hZScsICc8aW5maWxlLm1hZT4nLCAnLW9tYWUnLCAnPG91dGZpbGUubWFlPic=

>  <r_lp_tautomer_probability>  (318) 
1

>  <r_epik_Ionization_Penalty>  (318) 
5.04948e-05

>  <r_epik_Ionization_Penalty_Charging>  (318) 
0

>  <r_epik_Ionization_Penalty_Neutral>  (318) 
5.04948e-05

>  <r_epik_State_Penalty>  (318) 
-0

>  <r_epik_Charging_Adjusted_Penalty>  (318) 
0

>  <i_epik_Tot_Q>  (318) 
0

>  <i_epik_Tot_abs_Q>  (318) 
0

>  <s_epik_Chemistry_Notes>  (318) 
This compound contains an acetal/aminal-like group ( X-CH(R)-Y where X, Y are N, S, or O) that may be acid/base labile, releasing an aldehyde.

>  <s_lp_Force_Field>  (318) 
OPLS3e

>  <r_lp_Energy>  (318) 
81.7612

>  <b_lp_Chiralities_Consistent>  (318) 
1

>  <s_lp_Variant>  (318) 
100:0-1

>  <s_i_glide_gridfile>  (318) 
pfpi4k_grid

>  <i_i_glide_lignum>  (318) 
13

>  <i_i_glide_rotatable_bonds>  (318) 
6

>  <r_i_docking_score>  (318) 
-2.46175

>  <r_i_glide_ligand_efficiency>  (318) 
-0.0820583

>  <r_i_glide_ligand_efficiency_sa>  (318) 
-0.254974

>  <r_i_glide_ligand_efficiency_ln>  (318) 
-0.559336

>  <r_i_glide_gscore>  (318) 
-2.46175

>  <r_i_glide_lipo>  (318) 
-0.358833

>  <r_i_glide_hbond>  (318) 
0

>  <r_i_glide_metal>  (318) 
-0

>  <r_i_glide_rewards>  (318) 
-0.594203

>  <r_i_glide_evdw>  (318) 
-27.3784

>  <r_i_glide_ecoul>  (318) 
-3.08293

>  <r_i_glide_erotb>  (318) 
0.453666

>  <r_i_glide_esite>  (318) 
-0.131018

>  <r_i_glide_emodel>  (318) 
-31.3228

>  <r_i_glide_energy>  (318) 
-30.4614

>  <r_i_glide_einternal>  (318) 
8.06609

>  <r_i_glide_intrahb_reward>  (318) 
-0

>  <i_i_glide_confnum>  (318) 
6

>  <i_i_glide_posenum>  (318) 
25

>  <r_i_glide_eff_state_penalty>  (318) 
0

>  <ligand_id>  (318) 
100

>  <original_smiles>  (318) 
C=C(C)C1OC23OC(OC)C4C5CCC(C(OC)C52)C4(NC(=O)c2nnnn2C)C13

>  <smiles>  (318) 
[H]C([H])=C(C([H])([H])[H])C1([H])OC23OC([H])(OC([H])([H])[H])C4([H])C5([H])C([H])([H])C([H])([H])C([H])(C([H])(OC([H])([H])[H])C25[H])C4(N([H])C(=O)c2nnnn2C([H])([H])[H])C13[H]

$$$$
101:0:0
     RDKit          3D

 58 63  0  0  1  0  0  0  0  0999 V2000
    5.5335   -0.2856    0.4998 C   0  0  0  0  0  0  0  0  0  0  0  0
    5.0677   -1.6308   -0.0584 C   0  0  2  0  0  0  0  0  0  0  0  0
    4.6355   -1.5962   -1.5191 C   0  0  0  0  0  0  0  0  0  0  0  0
    3.9097   -2.9390   -1.6732 C   0  0  1  0  0  0  0  0  0  0  0  0
    4.6145   -3.8585   -2.4892 O   0  0  0  0  0  0  0  0  0  0  0  0
    3.6501   -3.4677   -0.2253 C   0  0  1  0  0  0  0  0  0  0  0  0
    2.2350   -4.0820   -0.1816 C   0  0  0  0  0  0  0  0  0  0  0  0
    4.7904   -4.3229    0.3728 C   0  0  0  0  0  0  0  0  0  0  0  0
    6.0496   -3.8139    0.2636 C   0  0  0  0  0  0  0  0  0  0  0  0
    7.3703   -4.2649    0.8608 C   0  0  0  0  0  0  0  0  0  0  0  0
    7.5213   -5.7147    1.3205 C   0  0  1  0  0  0  0  0  0  0  0  0
    8.8799   -5.8407    1.7194 O   0  0  0  0  0  0  0  0  0  0  0  0
    6.5595   -6.0464    2.4569 C   0  0  0  0  0  0  0  0  0  0  0  0
    6.9516   -6.0430    3.7509 C   0  0  0  0  0  0  0  0  0  0  0  0
    6.0167   -6.2167    4.8748 C   0  0  0  0  0  0  0  0  0  0  0  0
    6.3513   -6.0616    6.0439 O   0  0  0  0  0  0  0  0  0  0  0  0
    4.7404   -6.4841    4.5212 O   0  0  0  0  0  0  0  0  0  0  0  0
    4.4409   -7.1031    3.2772 C   0  0  1  0  0  0  0  0  0  0  0  0
    2.9568   -7.4121    3.1703 C   0  0  0  0  0  0  0  0  0  0  0  0
    2.3530   -8.5323    2.5183 C   0  0  0  0  0  0  0  0  0  0  0  0
    1.0060   -8.4241    2.7038 C   0  0  0  0  0  0  0  0  0  0  0  0
    0.7121   -7.3139    3.4283 O   0  0  0  0  0  0  0  0  0  0  0  0
    1.9033   -6.7175    3.7029 C   0  0  0  0  0  0  0  0  0  0  0  0
    5.1047   -6.3534    2.0681 C   0  0  2  0  0  0  0  0  0  0  0  0
    5.0561   -7.3577    0.8967 C   0  0  0  0  0  0  0  0  0  0  0  0
    4.3640   -5.0400    1.6551 C   0  0  1  0  0  0  0  0  0  0  0  0
    4.3337   -3.8895    2.7075 C   0  0  0  0  0  0  0  0  0  0  0  0
    3.8106   -2.4992    2.1870 C   0  0  0  0  0  0  0  0  0  0  0  0
    3.8048   -2.2195    0.6368 C   0  0  1  0  0  0  0  0  0  0  0  0
    6.2121   -2.5033   -0.1222 O   0  0  0  0  0  0  0  0  0  0  0  0
    4.7256    0.4468    0.5449 H   0  0  0  0  0  0  0  0  0  0  0  0
    6.3191    0.1299   -0.1267 H   0  0  0  0  0  0  0  0  0  0  0  0
    5.9594   -0.4003    1.4964 H   0  0  0  0  0  0  0  0  0  0  0  0
    3.9331   -0.7774   -1.6891 H   0  0  0  0  0  0  0  0  0  0  0  0
    5.4576   -1.4699   -2.2226 H   0  0  0  0  0  0  0  0  0  0  0  0
    2.9711   -2.7365   -2.1862 H   0  0  0  0  0  0  0  0  0  0  0  0
    4.1036   -4.6605   -2.5377 H   0  0  0  0  0  0  0  0  0  0  0  0
    1.5289   -3.4806   -0.7512 H   0  0  0  0  0  0  0  0  0  0  0  0
    1.8355   -4.1232    0.8304 H   0  0  0  0  0  0  0  0  0  0  0  0
    2.2235   -5.0838   -0.6026 H   0  0  0  0  0  0  0  0  0  0  0  0
    8.1252   -4.0599    0.1052 H   0  0  0  0  0  0  0  0  0  0  0  0
    7.5902   -3.5835    1.6745 H   0  0  0  0  0  0  0  0  0  0  0  0
    7.3904   -6.3812    0.4758 H   0  0  0  0  0  0  0  0  0  0  0  0
    9.1767   -6.7401    1.6318 H   0  0  0  0  0  0  0  0  0  0  0  0
    7.9675   -5.8080    4.0315 H   0  0  0  0  0  0  0  0  0  0  0  0
    4.9006   -8.0917    3.3328 H   0  0  0  0  0  0  0  0  0  0  0  0
    2.8418   -9.3439    1.9924 H   0  0  0  0  0  0  0  0  0  0  0  0
    0.1631   -9.0375    2.4126 H   0  0  0  0  0  0  0  0  0  0  0  0
    1.8325   -5.8314    4.3144 H   0  0  0  0  0  0  0  0  0  0  0  0
    4.0549   -7.7315    0.6852 H   0  0  0  0  0  0  0  0  0  0  0  0
    5.6899   -8.2238    1.1018 H   0  0  0  0  0  0  0  0  0  0  0  0
    5.3866   -6.8908   -0.0240 H   0  0  0  0  0  0  0  0  0  0  0  0
    3.3489   -5.3887    1.5259 H   0  0  0  0  0  0  0  0  0  0  0  0
    3.7365   -4.1880    3.5725 H   0  0  0  0  0  0  0  0  0  0  0  0
    5.3408   -3.7200    3.0951 H   0  0  0  0  0  0  0  0  0  0  0  0
    2.7810   -2.3932    2.5410 H   0  0  0  0  0  0  0  0  0  0  0  0
    4.3641   -1.7085    2.6981 H   0  0  0  0  0  0  0  0  0  0  0  0
    2.9838   -1.5267    0.4540 H   0  0  0  0  0  0  0  0  0  0  0  0
  2  1  1  1
  1 31  1  0
  1 32  1  0
  1 33  1  0
  2 29  1  0
  2 30  1  0
  2  3  1  0
  3  4  1  0
  3 34  1  0
  3 35  1  0
  4  5  1  0
  4  6  1  0
  4 36  1  6
  5 37  1  0
  6 29  1  0
  6  7  1  6
  6  8  1  0
  7 38  1  0
  7 39  1  0
  7 40  1  0
  8 26  1  0
  8  9  2  0
  9 10  1  0
  9 30  1  0
 10 11  1  0
 10 41  1  0
 10 42  1  0
 11 12  1  0
 11 13  1  0
 11 43  1  6
 12 44  1  0
 13 24  1  0
 13 14  2  0
 14 15  1  0
 14 45  1  0
 15 16  2  0
 15 17  1  0
 17 18  1  0
 18 19  1  0
 18 24  1  0
 18 46  1  1
 19 23  2  0
 19 20  1  0
 20 21  2  0
 20 47  1  0
 21 22  1  0
 21 48  1  0
 22 23  1  0
 23 49  1  0
 24 25  1  6
 24 26  1  0
 25 50  1  0
 25 51  1  0
 25 52  1  0
 26 27  1  0
 26 53  1  6
 27 28  1  0
 27 54  1  0
 27 55  1  0
 28 29  1  0
 28 56  1  0
 28 57  1  0
 29 58  1  1
M  END
>  <i_m_ct_stereo_status>  (319) 
1

>  <s_m_source_file>  (319) 
/var/tmp/pbs.5076255.sched01/tmparsu8qf0/123n9qi1oz7.sdf

>  <i_m_source_file_index>  (319) 
14

>  <i_lp_mmshare_version>  (319) 
48012

>  <i_f3d_flags>  (319) 
0

>  <s_epik_input>  (319) 
W0NIM11bQ0BAXTEyW0NASF0zW0NAQF0oW0NIM10pKFtDQEBIXShbQ0gyXTEpW09IXSlDND1DKE8yKVtDSDJdW0NAQEhdKFtPSF0pQz01W0NAXShbQ0gzXSkoW0NASF00W0NIMl1bQ0gyXTMpW0NAQEhdKE9DKD1PKVtDSF01KWM2W2NIXVtjSF1vW2NIXTY=

>  <s_epik_cmdline>  (319) 
J2VwaWtfcHl0aG9uJywgJy1waHQnLCAnMi4wJywgJy1waCcsICc3LjAnLCAnLXRuJywgJzgnLCAnLW1hJywgJzIwMCcsICctaW1hZScsICc8aW5maWxlLm1hZT4nLCAnLW9tYWUnLCAnPG91dGZpbGUubWFlPic=

>  <r_lp_tautomer_probability>  (319) 
1

>  <r_epik_Ionization_Penalty>  (319) 
1.44348e-05

>  <r_epik_Ionization_Penalty_Charging>  (319) 
0

>  <r_epik_Ionization_Penalty_Neutral>  (319) 
1.44348e-05

>  <r_epik_State_Penalty>  (319) 
-0

>  <r_epik_Charging_Adjusted_Penalty>  (319) 
0

>  <i_epik_Tot_Q>  (319) 
0

>  <i_epik_Tot_abs_Q>  (319) 
0

>  <s_epik_Chemistry_Notes>  (319) 
This compound has an ester and may undergo hydrolysis at high or low pH.

>  <s_lp_Force_Field>  (319) 
OPLS3e

>  <r_lp_Energy>  (319) 
79.2134

>  <b_lp_Chiralities_Consistent>  (319) 
1

>  <s_lp_Variant>  (319) 
101:0-1

>  <s_i_glide_gridfile>  (319) 
pfpi4k_grid

>  <i_i_glide_lignum>  (319) 
14

>  <i_i_glide_rotatable_bonds>  (319) 
3

>  <r_i_docking_score>  (319) 
-3.62875

>  <r_i_glide_ligand_efficiency>  (319) 
-0.120958

>  <r_i_glide_ligand_efficiency_sa>  (319) 
-0.375846

>  <r_i_glide_ligand_efficiency_ln>  (319) 
-0.824492

>  <r_i_glide_gscore>  (319) 
-3.62875

>  <r_i_glide_lipo>  (319) 
-0.62869

>  <r_i_glide_hbond>  (319) 
-0.125431

>  <r_i_glide_metal>  (319) 
-0

>  <r_i_glide_rewards>  (319) 
-0.596758

>  <r_i_glide_evdw>  (319) 
-26.466

>  <r_i_glide_ecoul>  (319) 
-7.1365

>  <r_i_glide_erotb>  (319) 
0.115903

>  <r_i_glide_esite>  (319) 
0

>  <r_i_glide_emodel>  (319) 
-40.6121

>  <r_i_glide_energy>  (319) 
-33.6025

>  <r_i_glide_einternal>  (319) 
0.818713

>  <r_i_glide_intrahb_reward>  (319) 
-0

>  <i_i_glide_confnum>  (319) 
2

>  <i_i_glide_posenum>  (319) 
30

>  <r_i_glide_eff_state_penalty>  (319) 
0

>  <ligand_id>  (319) 
101

>  <original_smiles>  (319) 
CC12CC(O)C3(C)C4=C(CC(O)C5=CC(=O)OC(c6ccoc6)C5(C)C4CCC13)O2

>  <smiles>  (319) 
[H]OC1([H])C2=C([H])C(=O)OC([H])(c3c([H])oc([H])c3[H])C2(C([H])([H])[H])C2([H])C3=C(OC4(C([H])([H])[H])C([H])([H])C([H])(O[H])C3(C([H])([H])[H])C4([H])C([H])([H])C2([H])[H])C1([H])[H]

$$$$
101:0:1
     RDKit          3D

 58 63  0  0  1  0  0  0  0  0999 V2000
    5.5274   -0.2880    0.5000 C   0  0  0  0  0  0  0  0  0  0  0  0
    5.0603   -1.6329   -0.0564 C   0  0  2  0  0  0  0  0  0  0  0  0
    4.6201   -1.5978   -1.5147 C   0  0  0  0  0  0  0  0  0  0  0  0
    3.8993   -2.9437   -1.6674 C   0  0  1  0  0  0  0  0  0  0  0  0
    4.6044   -3.8563   -2.4848 O   0  0  0  0  0  0  0  0  0  0  0  0
    3.6441   -3.4721   -0.2166 C   0  0  1  0  0  0  0  0  0  0  0  0
    2.2322   -4.0902   -0.1678 C   0  0  0  0  0  0  0  0  0  0  0  0
    4.7884   -4.3269    0.3762 C   0  0  0  0  0  0  0  0  0  0  0  0
    6.0469   -3.8164    0.2604 C   0  0  0  0  0  0  0  0  0  0  0  0
    7.3713   -4.2621    0.8573 C   0  0  0  0  0  0  0  0  0  0  0  0
    7.5290   -5.7143    1.3068 C   0  0  1  0  0  0  0  0  0  0  0  0
    8.8902   -5.8430    1.6973 O   0  0  0  0  0  0  0  0  0  0  0  0
    6.5713   -6.0511    2.4466 C   0  0  0  0  0  0  0  0  0  0  0  0
    6.9727   -6.0482    3.7371 C   0  0  0  0  0  0  0  0  0  0  0  0
    6.0382   -6.2339    4.8577 C   0  0  0  0  0  0  0  0  0  0  0  0
    6.3698   -6.0689    6.0279 O   0  0  0  0  0  0  0  0  0  0  0  0
    4.7677   -6.5141    4.5068 O   0  0  0  0  0  0  0  0  0  0  0  0
    4.4630   -7.1340    3.2616 C   0  0  1  0  0  0  0  0  0  0  0  0
    2.9679   -7.4164    3.1728 C   0  0  0  0  0  0  0  0  0  0  0  0
    1.9206   -6.7977    3.9193 C   0  0  0  0  0  0  0  0  0  0  0  0
    0.7544   -7.4014    3.5461 C   0  0  0  0  0  0  0  0  0  0  0  0
    0.9823   -8.3485    2.6079 O   0  0  0  0  0  0  0  0  0  0  0  0
    2.3251   -8.3549    2.4014 C   0  0  0  0  0  0  0  0  0  0  0  0
    5.1192   -6.3656    2.0590 C   0  0  2  0  0  0  0  0  0  0  0  0
    5.0791   -7.3592    0.8798 C   0  0  0  0  0  0  0  0  0  0  0  0
    4.3706   -5.0493    1.6585 C   0  0  1  0  0  0  0  0  0  0  0  0
    4.3444   -3.8986    2.7129 C   0  0  0  0  0  0  0  0  0  0  0  0
    3.8173   -2.5070    2.1956 C   0  0  0  0  0  0  0  0  0  0  0  0
    3.8032   -2.2253    0.6464 C   0  0  1  0  0  0  0  0  0  0  0  0
    6.2060   -2.5034   -0.1252 O   0  0  0  0  0  0  0  0  0  0  0  0
    4.7190    0.4430    0.5511 H   0  0  0  0  0  0  0  0  0  0  0  0
    6.3082    0.1290   -0.1317 H   0  0  0  0  0  0  0  0  0  0  0  0
    5.9615   -0.4025    1.4922 H   0  0  0  0  0  0  0  0  0  0  0  0
    3.9162   -0.7789   -1.6803 H   0  0  0  0  0  0  0  0  0  0  0  0
    5.4385   -1.4704   -2.2230 H   0  0  0  0  0  0  0  0  0  0  0  0
    2.9545   -2.7388   -2.1733 H   0  0  0  0  0  0  0  0  0  0  0  0
    4.0894   -4.6639   -2.5343 H   0  0  0  0  0  0  0  0  0  0  0  0
    1.5226   -3.4921   -0.7369 H   0  0  0  0  0  0  0  0  0  0  0  0
    1.8347   -4.1294    0.8450 H   0  0  0  0  0  0  0  0  0  0  0  0
    2.2209   -5.0932   -0.5863 H   0  0  0  0  0  0  0  0  0  0  0  0
    8.1231   -4.0538    0.0981 H   0  0  0  0  0  0  0  0  0  0  0  0
    7.5935   -3.5891    1.6832 H   0  0  0  0  0  0  0  0  0  0  0  0
    7.3969   -6.3777    0.4591 H   0  0  0  0  0  0  0  0  0  0  0  0
    9.1866   -6.7407    1.6037 H   0  0  0  0  0  0  0  0  0  0  0  0
    7.9849   -5.8083    4.0173 H   0  0  0  0  0  0  0  0  0  0  0  0
    4.9278   -8.1238    3.3138 H   0  0  0  0  0  0  0  0  0  0  0  0
    2.0132   -6.0323    4.6755 H   0  0  0  0  0  0  0  0  0  0  0  0
   -0.2756   -7.3071    3.8531 H   0  0  0  0  0  0  0  0  0  0  0  0
    2.6495   -9.1098    1.6953 H   0  0  0  0  0  0  0  0  0  0  0  0
    4.0828   -7.7261    0.6477 H   0  0  0  0  0  0  0  0  0  0  0  0
    5.7065   -8.2289    1.0849 H   0  0  0  0  0  0  0  0  0  0  0  0
    5.4104   -6.8861   -0.0380 H   0  0  0  0  0  0  0  0  0  0  0  0
    3.3548   -5.3973    1.5367 H   0  0  0  0  0  0  0  0  0  0  0  0
    3.7511   -4.1988    3.5785 H   0  0  0  0  0  0  0  0  0  0  0  0
    5.3523   -3.7282    3.0956 H   0  0  0  0  0  0  0  0  0  0  0  0
    2.7898   -2.4011    2.5554 H   0  0  0  0  0  0  0  0  0  0  0  0
    4.3726   -1.7164    2.7033 H   0  0  0  0  0  0  0  0  0  0  0  0
    2.9804   -1.5343    0.4678 H   0  0  0  0  0  0  0  0  0  0  0  0
  2  1  1  1
  1 31  1  0
  1 32  1  0
  1 33  1  0
  2 29  1  0
  2 30  1  0
  2  3  1  0
  3  4  1  0
  3 34  1  0
  3 35  1  0
  4  5  1  0
  4  6  1  0
  4 36  1  6
  5 37  1  0
  6 29  1  0
  6  7  1  6
  6  8  1  0
  7 38  1  0
  7 39  1  0
  7 40  1  0
  8 26  1  0
  8  9  2  0
  9 10  1  0
  9 30  1  0
 10 11  1  0
 10 41  1  0
 10 42  1  0
 11 12  1  0
 11 13  1  0
 11 43  1  6
 12 44  1  0
 13 24  1  0
 13 14  2  0
 14 15  1  0
 14 45  1  0
 15 16  2  0
 15 17  1  0
 17 18  1  0
 18 19  1  0
 18 24  1  0
 18 46  1  1
 19 23  2  0
 19 20  1  0
 20 21  2  0
 20 47  1  0
 21 22  1  0
 21 48  1  0
 22 23  1  0
 23 49  1  0
 24 25  1  6
 24 26  1  0
 25 50  1  0
 25 51  1  0
 25 52  1  0
 26 27  1  0
 26 53  1  6
 27 28  1  0
 27 54  1  0
 27 55  1  0
 28 29  1  0
 28 56  1  0
 28 57  1  0
 29 58  1  1
M  END
>  <i_m_ct_stereo_status>  (320) 
1

>  <s_m_source_file>  (320) 
/var/tmp/pbs.5076255.sched01/tmparsu8qf0/123n9qi1oz7.sdf

>  <i_m_source_file_index>  (320) 
14

>  <i_lp_mmshare_version>  (320) 
48012

>  <i_f3d_flags>  (320) 
0

>  <s_epik_input>  (320) 
W0NIM11bQ0BAXTEyW0NASF0zW0NAQF0oW0NIM10pKFtDQEBIXShbQ0gyXTEpW09IXSlDND1DKE8yKVtDSDJdW0NAQEhdKFtPSF0pQz01W0NAXShbQ0gzXSkoW0NASF00W0NIMl1bQ0gyXTMpW0NAQEhdKE9DKD1PKVtDSF01KWM2W2NIXVtjSF1vW2NIXTY=

>  <s_epik_cmdline>  (320) 
J2VwaWtfcHl0aG9uJywgJy1waHQnLCAnMi4wJywgJy1waCcsICc3LjAnLCAnLXRuJywgJzgnLCAnLW1hJywgJzIwMCcsICctaW1hZScsICc8aW5maWxlLm1hZT4nLCAnLW9tYWUnLCAnPG91dGZpbGUubWFlPic=

>  <r_lp_tautomer_probability>  (320) 
1

>  <r_epik_Ionization_Penalty>  (320) 
1.44348e-05

>  <r_epik_Ionization_Penalty_Charging>  (320) 
0

>  <r_epik_Ionization_Penalty_Neutral>  (320) 
1.44348e-05

>  <r_epik_State_Penalty>  (320) 
-0

>  <r_epik_Charging_Adjusted_Penalty>  (320) 
0

>  <i_epik_Tot_Q>  (320) 
0

>  <i_epik_Tot_abs_Q>  (320) 
0

>  <s_epik_Chemistry_Notes>  (320) 
This compound has an ester and may undergo hydrolysis at high or low pH.

>  <s_lp_Force_Field>  (320) 
OPLS3e

>  <r_lp_Energy>  (320) 
79.2134

>  <b_lp_Chiralities_Consistent>  (320) 
1

>  <s_lp_Variant>  (320) 
101:0-1

>  <s_i_glide_gridfile>  (320) 
pfpi4k_grid

>  <i_i_glide_lignum>  (320) 
14

>  <i_i_glide_rotatable_bonds>  (320) 
3

>  <r_i_docking_score>  (320) 
-3.49053

>  <r_i_glide_ligand_efficiency>  (320) 
-0.116351

>  <r_i_glide_ligand_efficiency_sa>  (320) 
-0.36153

>  <r_i_glide_ligand_efficiency_ln>  (320) 
-0.793087

>  <r_i_glide_gscore>  (320) 
-3.49053

>  <r_i_glide_lipo>  (320) 
-0.625644

>  <r_i_glide_hbond>  (320) 
-0.130514

>  <r_i_glide_metal>  (320) 
-0

>  <r_i_glide_rewards>  (320) 
-0.596758

>  <r_i_glide_evdw>  (320) 
-26.1417

>  <r_i_glide_ecoul>  (320) 
-6.30957

>  <r_i_glide_erotb>  (320) 
0.115903

>  <r_i_glide_esite>  (320) 
0

>  <r_i_glide_emodel>  (320) 
-39.0684

>  <r_i_glide_energy>  (320) 
-32.4513

>  <r_i_glide_einternal>  (320) 
0.886406

>  <r_i_glide_intrahb_reward>  (320) 
-0

>  <i_i_glide_confnum>  (320) 
2

>  <i_i_glide_posenum>  (320) 
2

>  <r_i_glide_eff_state_penalty>  (320) 
0

>  <ligand_id>  (320) 
101

>  <original_smiles>  (320) 
CC12CC(O)C3(C)C4=C(CC(O)C5=CC(=O)OC(c6ccoc6)C5(C)C4CCC13)O2

>  <smiles>  (320) 
[H]OC1([H])C2=C([H])C(=O)OC([H])(c3c([H])oc([H])c3[H])C2(C([H])([H])[H])C2([H])C3=C(OC4(C([H])([H])[H])C([H])([H])C([H])(O[H])C3(C([H])([H])[H])C4([H])C([H])([H])C2([H])[H])C1([H])[H]

$$$$
101:0:2
     RDKit          3D

 58 63  0  0  1  0  0  0  0  0999 V2000
    5.5664   -0.2788    0.4920 C   0  0  0  0  0  0  0  0  0  0  0  0
    5.1014   -1.6219   -0.0747 C   0  0  2  0  0  0  0  0  0  0  0  0
    4.6997   -1.5882   -1.5451 C   0  0  0  0  0  0  0  0  0  0  0  0
    3.9641   -2.9251   -1.7133 C   0  0  1  0  0  0  0  0  0  0  0  0
    4.6607   -3.8573   -2.5221 O   0  0  0  0  0  0  0  0  0  0  0  0
    3.6697   -3.4506   -0.2671 C   0  0  1  0  0  0  0  0  0  0  0  0
    2.2507   -4.0548   -0.2502 C   0  0  0  0  0  0  0  0  0  0  0  0
    4.7918   -4.3142    0.3503 C   0  0  0  0  0  0  0  0  0  0  0  0
    6.0556   -3.8137    0.2577 C   0  0  0  0  0  0  0  0  0  0  0  0
    7.3649   -4.2599    0.8775 C   0  0  0  0  0  0  0  0  0  0  0  0
    7.4963   -5.6962    1.3716 C   0  0  1  0  0  0  0  0  0  0  0  0
    8.8368   -5.8371    1.7986 O   0  0  0  0  0  0  0  0  0  0  0  0
    6.5093   -6.0298    2.4823 C   0  0  0  0  0  0  0  0  0  0  0  0
    6.8742   -6.0335    3.7831 C   0  0  0  0  0  0  0  0  0  0  0  0
    5.9114   -6.2137    4.8817 C   0  0  0  0  0  0  0  0  0  0  0  0
    6.2135   -6.0464    6.0572 O   0  0  0  0  0  0  0  0  0  0  0  0
    4.6514   -6.4863    4.4971 O   0  0  0  0  0  0  0  0  0  0  0  0
    4.3706   -7.1031    3.2457 C   0  0  1  0  0  0  0  0  0  0  0  0
    2.8726   -7.3732    3.1241 C   0  0  0  0  0  0  0  0  0  0  0  0
    1.8307   -6.8109    3.9221 C   0  0  0  0  0  0  0  0  0  0  0  0
    0.6575   -7.3740    3.5079 C   0  0  0  0  0  0  0  0  0  0  0  0
    0.8755   -8.2406    2.4928 O   0  0  0  0  0  0  0  0  0  0  0  0
    2.2181   -8.2420    2.2815 C   0  0  0  0  0  0  0  0  0  0  0  0
    5.0673   -6.3423    2.0547 C   0  0  2  0  0  0  0  0  0  0  0  0
    5.0567   -7.3395    0.8813 C   0  0  0  0  0  0  0  0  0  0  0  0
    4.3389   -5.0248    1.6285 C   0  0  1  0  0  0  0  0  0  0  0  0
    4.2953   -3.8702    2.6788 C   0  0  0  0  0  0  0  0  0  0  0  0
    3.7929   -2.4776    2.1455 C   0  0  0  0  0  0  0  0  0  0  0  0
    3.8202   -2.2018    0.5950 C   0  0  1  0  0  0  0  0  0  0  0  0
    6.2381   -2.5015   -0.1184 O   0  0  0  0  0  0  0  0  0  0  0  0
    4.7620    0.4554    0.5252 H   0  0  0  0  0  0  0  0  0  0  0  0
    6.3687    0.1317   -0.1134 H   0  0  0  0  0  0  0  0  0  0  0  0
    5.9686   -0.3964    1.4990 H   0  0  0  0  0  0  0  0  0  0  0  0
    4.0088   -0.7642   -1.7317 H   0  0  0  0  0  0  0  0  0  0  0  0
    5.5383   -1.4727   -2.2318 H   0  0  0  0  0  0  0  0  0  0  0  0
    3.0346   -2.7119   -2.2415 H   0  0  0  0  0  0  0  0  0  0  0  0
    4.1164   -4.6328   -2.6000 H   0  0  0  0  0  0  0  0  0  0  0  0
    1.5599   -3.4499   -0.8344 H   0  0  0  0  0  0  0  0  0  0  0  0
    1.8302   -4.0908    0.7540 H   0  0  0  0  0  0  0  0  0  0  0  0
    2.2425   -5.0574   -0.6711 H   0  0  0  0  0  0  0  0  0  0  0  0
    8.1413   -4.0716    0.1354 H   0  0  0  0  0  0  0  0  0  0  0  0
    7.5665   -3.5592    1.6785 H   0  0  0  0  0  0  0  0  0  0  0  0
    7.3960   -6.3782    0.5350 H   0  0  0  0  0  0  0  0  0  0  0  0
    8.9848   -5.3006    2.5630 H   0  0  0  0  0  0  0  0  0  0  0  0
    7.8814   -5.8113    4.1005 H   0  0  0  0  0  0  0  0  0  0  0  0
    4.8224   -8.0981    3.3077 H   0  0  0  0  0  0  0  0  0  0  0  0
    1.9304   -6.1133    4.7396 H   0  0  0  0  0  0  0  0  0  0  0  0
   -0.3677   -7.3054    3.8290 H   0  0  0  0  0  0  0  0  0  0  0  0
    2.5273   -8.9461    1.5212 H   0  0  0  0  0  0  0  0  0  0  0  0
    4.0671   -7.6934    0.6091 H   0  0  0  0  0  0  0  0  0  0  0  0
    5.6720   -8.2141    1.1021 H   0  0  0  0  0  0  0  0  0  0  0  0
    5.4130   -6.8709   -0.0319 H   0  0  0  0  0  0  0  0  0  0  0  0
    3.3237   -5.3669    1.4836 H   0  0  0  0  0  0  0  0  0  0  0  0
    3.6755   -4.1634    3.5298 H   0  0  0  0  0  0  0  0  0  0  0  0
    5.2936   -3.7054    3.0889 H   0  0  0  0  0  0  0  0  0  0  0  0
    2.7579   -2.3623    2.4760 H   0  0  0  0  0  0  0  0  0  0  0  0
    4.3408   -1.6881    2.6660 H   0  0  0  0  0  0  0  0  0  0  0  0
    3.0089   -1.5030    0.3905 H   0  0  0  0  0  0  0  0  0  0  0  0
  2  1  1  1
  1 31  1  0
  1 32  1  0
  1 33  1  0
  2 29  1  0
  2 30  1  0
  2  3  1  0
  3  4  1  0
  3 34  1  0
  3 35  1  0
  4  5  1  0
  4  6  1  0
  4 36  1  6
  5 37  1  0
  6 29  1  0
  6  7  1  6
  6  8  1  0
  7 38  1  0
  7 39  1  0
  7 40  1  0
  8 26  1  0
  8  9  2  0
  9 10  1  0
  9 30  1  0
 10 11  1  0
 10 41  1  0
 10 42  1  0
 11 12  1  0
 11 13  1  0
 11 43  1  6
 12 44  1  0
 13 24  1  0
 13 14  2  0
 14 15  1  0
 14 45  1  0
 15 16  2  0
 15 17  1  0
 17 18  1  0
 18 19  1  0
 18 24  1  0
 18 46  1  1
 19 23  2  0
 19 20  1  0
 20 21  2  0
 20 47  1  0
 21 22  1  0
 21 48  1  0
 22 23  1  0
 23 49  1  0
 24 25  1  6
 24 26  1  0
 25 50  1  0
 25 51  1  0
 25 52  1  0
 26 27  1  0
 26 53  1  6
 27 28  1  0
 27 54  1  0
 27 55  1  0
 28 29  1  0
 28 56  1  0
 28 57  1  0
 29 58  1  1
M  END
>  <i_m_ct_stereo_status>  (321) 
1

>  <s_m_source_file>  (321) 
/var/tmp/pbs.5076255.sched01/tmparsu8qf0/123n9qi1oz7.sdf

>  <i_m_source_file_index>  (321) 
14

>  <i_lp_mmshare_version>  (321) 
48012

>  <i_f3d_flags>  (321) 
0

>  <s_epik_input>  (321) 
W0NIM11bQ0BAXTEyW0NASF0zW0NAQF0oW0NIM10pKFtDQEBIXShbQ0gyXTEpW09IXSlDND1DKE8yKVtDSDJdW0NAQEhdKFtPSF0pQz01W0NAXShbQ0gzXSkoW0NASF00W0NIMl1bQ0gyXTMpW0NAQEhdKE9DKD1PKVtDSF01KWM2W2NIXVtjSF1vW2NIXTY=

>  <s_epik_cmdline>  (321) 
J2VwaWtfcHl0aG9uJywgJy1waHQnLCAnMi4wJywgJy1waCcsICc3LjAnLCAnLXRuJywgJzgnLCAnLW1hJywgJzIwMCcsICctaW1hZScsICc8aW5maWxlLm1hZT4nLCAnLW9tYWUnLCAnPG91dGZpbGUubWFlPic=

>  <r_lp_tautomer_probability>  (321) 
1

>  <r_epik_Ionization_Penalty>  (321) 
1.44348e-05

>  <r_epik_Ionization_Penalty_Charging>  (321) 
0

>  <r_epik_Ionization_Penalty_Neutral>  (321) 
1.44348e-05

>  <r_epik_State_Penalty>  (321) 
-0

>  <r_epik_Charging_Adjusted_Penalty>  (321) 
0

>  <i_epik_Tot_Q>  (321) 
0

>  <i_epik_Tot_abs_Q>  (321) 
0

>  <s_epik_Chemistry_Notes>  (321) 
This compound has an ester and may undergo hydrolysis at high or low pH.

>  <s_lp_Force_Field>  (321) 
OPLS3e

>  <r_lp_Energy>  (321) 
79.2134

>  <b_lp_Chiralities_Consistent>  (321) 
1

>  <s_lp_Variant>  (321) 
101:0-1

>  <s_i_glide_gridfile>  (321) 
pfpi4k_grid

>  <i_i_glide_lignum>  (321) 
14

>  <i_i_glide_rotatable_bonds>  (321) 
3

>  <r_i_docking_score>  (321) 
-3.15171

>  <r_i_glide_ligand_efficiency>  (321) 
-0.105057

>  <r_i_glide_ligand_efficiency_sa>  (321) 
-0.326437

>  <r_i_glide_ligand_efficiency_ln>  (321) 
-0.716104

>  <r_i_glide_gscore>  (321) 
-3.15171

>  <r_i_glide_lipo>  (321) 
-0.632206

>  <r_i_glide_hbond>  (321) 
0

>  <r_i_glide_metal>  (321) 
-0

>  <r_i_glide_rewards>  (321) 
-0.596758

>  <r_i_glide_evdw>  (321) 
-26.8394

>  <r_i_glide_ecoul>  (321) 
-4.64456

>  <r_i_glide_erotb>  (321) 
0.115903

>  <r_i_glide_esite>  (321) 
0

>  <r_i_glide_emodel>  (321) 
-37.5501

>  <r_i_glide_energy>  (321) 
-31.4839

>  <r_i_glide_einternal>  (321) 
0.496015

>  <r_i_glide_intrahb_reward>  (321) 
-0

>  <i_i_glide_confnum>  (321) 
4

>  <i_i_glide_posenum>  (321) 
10

>  <r_i_glide_eff_state_penalty>  (321) 
0

>  <ligand_id>  (321) 
101

>  <original_smiles>  (321) 
CC12CC(O)C3(C)C4=C(CC(O)C5=CC(=O)OC(c6ccoc6)C5(C)C4CCC13)O2

>  <smiles>  (321) 
[H]OC1([H])C2=C([H])C(=O)OC([H])(c3c([H])oc([H])c3[H])C2(C([H])([H])[H])C2([H])C3=C(OC4(C([H])([H])[H])C([H])([H])C([H])(O[H])C3(C([H])([H])[H])C4([H])C([H])([H])C2([H])[H])C1([H])[H]

$$$$
102:0:0
     RDKit          3D

 54 59  0  0  1  0  0  0  0  0999 V2000
    1.7106   -0.8500    3.9439 C   0  0  0  0  0  0  0  0  0  0  0  0
    2.7981   -0.9071    2.8928 C   0  0  0  0  0  0  0  0  0  0  0  0
    3.4037    0.4539    2.6120 C   0  0  0  0  0  0  0  0  0  0  0  0
    3.6492   -2.1148    2.8084 C   0  0  0  0  0  0  0  0  0  0  0  0
    4.7043   -2.7900    3.2830 C   0  0  0  0  0  0  0  0  0  0  0  0
    5.4352   -3.9661    2.6318 C   0  0  1  0  0  0  0  0  0  0  0  0
    5.0441   -5.3675    3.1232 C   0  0  0  0  0  0  0  0  0  0  0  0
    4.7361   -5.8507    4.2144 O   0  0  0  0  0  0  0  0  0  0  0  0
    5.2772   -5.9192    1.6881 C   0  0  1  0  0  0  0  0  0  0  0  0
    6.5439   -6.5473    1.6194 O   0  0  0  0  0  0  0  0  0  0  0  0
    4.1638   -6.7912    1.0858 C   0  0  1  0  0  0  0  0  0  0  0  0
    3.5506   -7.6584    2.0278 O   0  0  0  0  0  0  0  0  0  0  0  0
    2.6733   -8.6123    1.4523 C   0  0  0  0  0  0  0  0  0  0  0  0
    2.0753   -9.4819    2.5261 C   0  0  0  0  0  0  0  0  0  0  0  0
    2.7410  -10.6562    2.9199 C   0  0  0  0  0  0  0  0  0  0  0  0
    2.2050  -11.4560    3.9464 C   0  0  0  0  0  0  0  0  0  0  0  0
    1.0060  -11.0767    4.5726 C   0  0  0  0  0  0  0  0  0  0  0  0
    0.3442   -9.8973    4.1852 C   0  0  0  0  0  0  0  0  0  0  0  0
    0.8746   -9.0997    3.1547 C   0  0  0  0  0  0  0  0  0  0  0  0
    3.1755   -5.7978    0.5147 C   0  0  1  0  0  0  0  0  0  0  0  0
    2.6679   -4.8260    1.4321 O   0  0  0  0  0  0  0  0  0  0  0  0
    3.7324   -4.4015    0.5571 C   0  0  2  0  0  0  0  0  0  0  0  0
    3.3407   -3.2261   -0.3548 C   0  0  1  0  0  0  0  0  0  0  0  0
    2.0784   -3.4547   -0.9458 O   0  0  0  0  0  0  0  0  0  0  0  0
    3.3065   -1.8655    0.3642 C   0  0  0  0  0  0  0  0  0  0  0  0
    2.6714   -1.9579    1.7270 C   0  0  2  0  0  0  0  0  0  0  0  0
    5.1441   -4.4435    1.1735 C   0  0  1  0  0  0  0  0  0  0  0  0
    6.1962   -4.0161    0.1485 C   0  0  0  0  0  0  0  0  0  0  0  0
    0.8861   -0.2293    3.5913 H   0  0  0  0  0  0  0  0  0  0  0  0
    2.0921   -0.4326    4.8756 H   0  0  0  0  0  0  0  0  0  0  0  0
    1.3253   -1.8498    4.1390 H   0  0  0  0  0  0  0  0  0  0  0  0
    2.6614    1.1050    2.1471 H   0  0  0  0  0  0  0  0  0  0  0  0
    4.2414    0.3579    1.9227 H   0  0  0  0  0  0  0  0  0  0  0  0
    3.7627    0.9235    3.5285 H   0  0  0  0  0  0  0  0  0  0  0  0
    5.1498   -2.4352    4.1978 H   0  0  0  0  0  0  0  0  0  0  0  0
    6.5058   -3.8148    2.7119 H   0  0  0  0  0  0  0  0  0  0  0  0
    6.6392   -6.8721    0.7390 H   0  0  0  0  0  0  0  0  0  0  0  0
    4.5749   -7.3922    0.2718 H   0  0  0  0  0  0  0  0  0  0  0  0
    1.8654   -8.1401    0.8928 H   0  0  0  0  0  0  0  0  0  0  0  0
    3.2295   -9.2400    0.7580 H   0  0  0  0  0  0  0  0  0  0  0  0
    3.6623  -10.9505    2.4370 H   0  0  0  0  0  0  0  0  0  0  0  0
    2.7078  -12.3649    4.2472 H   0  0  0  0  0  0  0  0  0  0  0  0
    0.5843  -11.6994    5.3483 H   0  0  0  0  0  0  0  0  0  0  0  0
   -0.5762   -9.6099    4.6726 H   0  0  0  0  0  0  0  0  0  0  0  0
    0.3654   -8.1960    2.8594 H   0  0  0  0  0  0  0  0  0  0  0  0
    2.5098   -6.0985   -0.2901 H   0  0  0  0  0  0  0  0  0  0  0  0
    4.0388   -3.1647   -1.1916 H   0  0  0  0  0  0  0  0  0  0  0  0
    1.6999   -2.5945   -1.1187 H   0  0  0  0  0  0  0  0  0  0  0  0
    4.3148   -1.4578    0.4517 H   0  0  0  0  0  0  0  0  0  0  0  0
    2.7409   -1.1390   -0.2109 H   0  0  0  0  0  0  0  0  0  0  0  0
    1.7372   -2.5121    1.7354 H   0  0  0  0  0  0  0  0  0  0  0  0
    6.0943   -4.5841   -0.7725 H   0  0  0  0  0  0  0  0  0  0  0  0
    7.2073   -4.1908    0.5224 H   0  0  0  0  0  0  0  0  0  0  0  0
    6.1385   -2.9534   -0.0919 H   0  0  0  0  0  0  0  0  0  0  0  0
  1  2  1  0
  1 29  1  0
  1 30  1  0
  1 31  1  0
  2 26  1  0
  2  3  1  0
  2  4  1  0
  3 32  1  0
  3 33  1  0
  3 34  1  0
  4 26  1  0
  4  5  2  3
  5  6  1  0
  5 35  1  0
  6 27  1  0
  6  7  1  0
  6 36  1  6
  7  8  2  0
  7  9  1  0
  9 27  1  0
  9 10  1  1
  9 11  1  0
 10 37  1  0
 11 12  1  0
 11 20  1  0
 11 38  1  6
 12 13  1  0
 13 14  1  0
 13 39  1  0
 13 40  1  0
 14 19  1  0
 14 15  2  0
 15 16  1  0
 15 41  1  0
 16 17  2  0
 16 42  1  0
 17 18  1  0
 17 43  1  0
 18 19  2  0
 18 44  1  0
 19 45  1  0
 20 22  1  0
 20 21  1  0
 20 46  1  6
 22 21  1  1
 22 23  1  0
 22 27  1  0
 23 24  1  0
 23 25  1  0
 23 47  1  6
 24 48  1  0
 25 26  1  0
 25 49  1  0
 25 50  1  0
 26 51  1  6
 27 28  1  6
 28 52  1  0
 28 53  1  0
 28 54  1  0
M  END
>  <i_m_ct_stereo_status>  (322) 
1

>  <s_m_source_file>  (322) 
/var/tmp/pbs.5076255.sched01/tmparsu8qf0/123n9qi1oz7.sdf

>  <i_m_source_file_index>  (322) 
15

>  <i_lp_mmshare_version>  (322) 
48012

>  <i_f3d_flags>  (322) 
0

>  <s_epik_input>  (322) 
W09IXVtDQEhdMVtDSDJdW0NIXShDMihbQ0gzXSlbQ0gzXSlDXDI9W0NIXS9bQ0BASF0oQzM9TylbQ0BAXTQoW0NIM10pW0NAXTMoW09IXSlbQ0BIXShbQ0BASF0oTzUpW0NAXTE0NSlPW0NIMl1jNltjSF1bY0hdW2NIXVtjSF1bY0hdNg==

>  <s_epik_cmdline>  (322) 
J2VwaWtfcHl0aG9uJywgJy1waHQnLCAnMi4wJywgJy1waCcsICc3LjAnLCAnLXRuJywgJzgnLCAnLW1hJywgJzIwMCcsICctaW1hZScsICc8aW5maWxlLm1hZT4nLCAnLW9tYWUnLCAnPG91dGZpbGUubWFlPic=

>  <r_lp_tautomer_probability>  (322) 
1

>  <r_epik_Ionization_Penalty>  (322) 
1.88022e-07

>  <r_epik_Ionization_Penalty_Charging>  (322) 
0

>  <r_epik_Ionization_Penalty_Neutral>  (322) 
1.88022e-07

>  <r_epik_State_Penalty>  (322) 
-0

>  <r_epik_Charging_Adjusted_Penalty>  (322) 
0

>  <i_epik_Tot_Q>  (322) 
0

>  <i_epik_Tot_abs_Q>  (322) 
0

>  <s_lp_Force_Field>  (322) 
OPLS3e

>  <r_lp_Energy>  (322) 
34.773

>  <b_lp_Chiralities_Consistent>  (322) 
1

>  <s_lp_Variant>  (322) 
102:0-1

>  <s_i_glide_gridfile>  (322) 
pfpi4k_grid

>  <i_i_glide_lignum>  (322) 
15

>  <i_i_glide_rotatable_bonds>  (322) 
5

>  <r_i_docking_score>  (322) 
-2.38459

>  <r_i_glide_ligand_efficiency>  (322) 
-0.0851639

>  <r_i_glide_ligand_efficiency_sa>  (322) 
-0.258608

>  <r_i_glide_ligand_efficiency_ln>  (322) 
-0.550433

>  <r_i_glide_gscore>  (322) 
-2.38459

>  <r_i_glide_lipo>  (322) 
-0.443332

>  <r_i_glide_hbond>  (322) 
0

>  <r_i_glide_metal>  (322) 
-0

>  <r_i_glide_rewards>  (322) 
-0.80148

>  <r_i_glide_evdw>  (322) 
-21.1933

>  <r_i_glide_ecoul>  (322) 
-2.39304

>  <r_i_glide_erotb>  (322) 
0.278843

>  <r_i_glide_esite>  (322) 
0

>  <r_i_glide_emodel>  (322) 
-26.9957

>  <r_i_glide_energy>  (322) 
-23.5863

>  <r_i_glide_einternal>  (322) 
1.47176

>  <r_i_glide_intrahb_reward>  (322) 
-0

>  <i_i_glide_confnum>  (322) 
2

>  <i_i_glide_posenum>  (322) 
31

>  <r_i_glide_eff_state_penalty>  (322) 
0

>  <ligand_id>  (322) 
102

>  <original_smiles>  (322) 
CC1(C)C2=CC3C(=O)C4(O)C(OCc5ccccc5)C5OC5(C(O)CC21)C34C

>  <smiles>  (322) 
[H]OC1([H])C([H])([H])C2([H])C(=C([H])C3([H])C(=O)C4(O[H])C([H])(OC([H])([H])c5c([H])c([H])c([H])c([H])c5[H])C5([H])OC15C34C([H])([H])[H])C2(C([H])([H])[H])C([H])([H])[H]

$$$$
102:0:1
     RDKit          3D

 54 59  0  0  1  0  0  0  0  0999 V2000
    2.0044   -0.5549    3.3187 C   0  0  0  0  0  0  0  0  0  0  0  0
    3.0320   -0.8798    2.2563 C   0  0  0  0  0  0  0  0  0  0  0  0
    3.7506    0.3546    1.7650 C   0  0  0  0  0  0  0  0  0  0  0  0
    3.7581   -2.1636    2.3298 C   0  0  0  0  0  0  0  0  0  0  0  0
    4.7672   -2.8614    2.8733 C   0  0  0  0  0  0  0  0  0  0  0  0
    5.3659   -4.1848    2.3916 C   0  0  1  0  0  0  0  0  0  0  0  0
    4.8558   -5.4579    3.0917 C   0  0  0  0  0  0  0  0  0  0  0  0
    4.5135   -5.7394    4.2386 O   0  0  0  0  0  0  0  0  0  0  0  0
    4.9650   -6.2303    1.7445 C   0  0  1  0  0  0  0  0  0  0  0  0
    6.1576   -6.9931    1.7268 O   0  0  0  0  0  0  0  0  0  0  0  0
    3.7413   -7.0607    1.3072 C   0  0  1  0  0  0  0  0  0  0  0  0
    3.1114   -7.7707    2.3654 O   0  0  0  0  0  0  0  0  0  0  0  0
    1.9742   -8.5404    1.9834 C   0  0  0  0  0  0  0  0  0  0  0  0
    0.7009   -8.1182    2.6966 C   0  0  0  0  0  0  0  0  0  0  0  0
   -0.4886   -8.8528    2.4908 C   0  0  0  0  0  0  0  0  0  0  0  0
   -1.6806   -8.4834    3.1359 C   0  0  0  0  0  0  0  0  0  0  0  0
   -1.6876   -7.3682    3.9991 C   0  0  0  0  0  0  0  0  0  0  0  0
   -0.5081   -6.6420    4.2174 C   0  0  0  0  0  0  0  0  0  0  0  0
    0.6799   -7.0012    3.5625 C   0  0  0  0  0  0  0  0  0  0  0  0
    2.8195   -6.0448    0.6528 C   0  0  1  0  0  0  0  0  0  0  0  0
    2.4840   -4.9097    1.4483 O   0  0  0  0  0  0  0  0  0  0  0  0
    3.5247   -4.7317    0.4645 C   0  0  2  0  0  0  0  0  0  0  0  0
    3.2027   -3.6818   -0.6163 C   0  0  1  0  0  0  0  0  0  0  0  0
    1.8980   -3.8843   -1.1301 O   0  0  0  0  0  0  0  0  0  0  0  0
    3.3318   -2.2351   -0.1223 C   0  0  0  0  0  0  0  0  0  0  0  0
    2.7525   -2.0630    1.2620 C   0  0  2  0  0  0  0  0  0  0  0  0
    4.9554   -4.8340    1.0309 C   0  0  1  0  0  0  0  0  0  0  0  0
    5.9801   -4.6703   -0.0829 C   0  0  0  0  0  0  0  0  0  0  0  0
    1.2319    0.0925    2.9021 H   0  0  0  0  0  0  0  0  0  0  0  0
    2.4670   -0.0448    4.1630 H   0  0  0  0  0  0  0  0  0  0  0  0
    1.5306   -1.4683    3.6751 H   0  0  0  0  0  0  0  0  0  0  0  0
    3.0485    1.0029    1.2388 H   0  0  0  0  0  0  0  0  0  0  0  0
    4.5498    0.0843    1.0733 H   0  0  0  0  0  0  0  0  0  0  0  0
    4.1776    0.9033    2.6038 H   0  0  0  0  0  0  0  0  0  0  0  0
    5.2808   -2.4176    3.7101 H   0  0  0  0  0  0  0  0  0  0  0  0
    6.4503   -4.1203    2.4467 H   0  0  0  0  0  0  0  0  0  0  0  0
    6.1467   -7.4797    0.9182 H   0  0  0  0  0  0  0  0  0  0  0  0
    4.0550   -7.7985    0.5655 H   0  0  0  0  0  0  0  0  0  0  0  0
    1.7846   -8.5154    0.9107 H   0  0  0  0  0  0  0  0  0  0  0  0
    2.1941   -9.5767    2.2291 H   0  0  0  0  0  0  0  0  0  0  0  0
   -0.4919   -9.7132    1.8402 H   0  0  0  0  0  0  0  0  0  0  0  0
   -2.5802   -9.0639    2.9743 H   0  0  0  0  0  0  0  0  0  0  0  0
   -2.5850   -7.0543    4.4937 H   0  0  0  0  0  0  0  0  0  0  0  0
   -0.5165   -5.7906    4.8885 H   0  0  0  0  0  0  0  0  0  0  0  0
    1.5708   -6.4131    3.7335 H   0  0  0  0  0  0  0  0  0  0  0  0
    2.0417   -6.3557   -0.0404 H   0  0  0  0  0  0  0  0  0  0  0  0
    3.8663   -3.8199   -1.4754 H   0  0  0  0  0  0  0  0  0  0  0  0
    1.9458   -4.5401   -1.8110 H   0  0  0  0  0  0  0  0  0  0  0  0
    4.3803   -1.9295   -0.1209 H   0  0  0  0  0  0  0  0  0  0  0  0
    2.8140   -1.5689   -0.8062 H   0  0  0  0  0  0  0  0  0  0  0  0
    1.7710   -2.5116    1.3810 H   0  0  0  0  0  0  0  0  0  0  0  0
    5.7505   -5.3557   -0.8929 H   0  0  0  0  0  0  0  0  0  0  0  0
    6.9881   -4.9018    0.2722 H   0  0  0  0  0  0  0  0  0  0  0  0
    6.0150   -3.6557   -0.4840 H   0  0  0  0  0  0  0  0  0  0  0  0
  1  2  1  0
  1 29  1  0
  1 30  1  0
  1 31  1  0
  2 26  1  0
  2  3  1  0
  2  4  1  0
  3 32  1  0
  3 33  1  0
  3 34  1  0
  4 26  1  0
  4  5  2  3
  5  6  1  0
  5 35  1  0
  6 27  1  0
  6  7  1  0
  6 36  1  6
  7  8  2  0
  7  9  1  0
  9 27  1  0
  9 10  1  1
  9 11  1  0
 10 37  1  0
 11 12  1  0
 11 20  1  0
 11 38  1  6
 12 13  1  0
 13 14  1  0
 13 39  1  0
 13 40  1  0
 14 19  1  0
 14 15  2  0
 15 16  1  0
 15 41  1  0
 16 17  2  0
 16 42  1  0
 17 18  1  0
 17 43  1  0
 18 19  2  0
 18 44  1  0
 19 45  1  0
 20 22  1  0
 20 21  1  0
 20 46  1  6
 22 21  1  1
 22 23  1  0
 22 27  1  0
 23 24  1  0
 23 25  1  0
 23 47  1  6
 24 48  1  0
 25 26  1  0
 25 49  1  0
 25 50  1  0
 26 51  1  1
 27 28  1  6
 28 52  1  0
 28 53  1  0
 28 54  1  0
M  END
>  <i_m_ct_stereo_status>  (323) 
1

>  <s_m_source_file>  (323) 
/var/tmp/pbs.5076255.sched01/tmparsu8qf0/123n9qi1oz7.sdf

>  <i_m_source_file_index>  (323) 
15

>  <i_lp_mmshare_version>  (323) 
48012

>  <i_f3d_flags>  (323) 
0

>  <s_epik_input>  (323) 
W09IXVtDQEhdMVtDSDJdW0NIXShDMihbQ0gzXSlbQ0gzXSlDXDI9W0NIXS9bQ0BASF0oQzM9TylbQ0BAXTQoW0NIM10pW0NAXTMoW09IXSlbQ0BIXShbQ0BASF0oTzUpW0NAXTE0NSlPW0NIMl1jNltjSF1bY0hdW2NIXVtjSF1bY0hdNg==

>  <s_epik_cmdline>  (323) 
J2VwaWtfcHl0aG9uJywgJy1waHQnLCAnMi4wJywgJy1waCcsICc3LjAnLCAnLXRuJywgJzgnLCAnLW1hJywgJzIwMCcsICctaW1hZScsICc8aW5maWxlLm1hZT4nLCAnLW9tYWUnLCAnPG91dGZpbGUubWFlPic=

>  <r_lp_tautomer_probability>  (323) 
1

>  <r_epik_Ionization_Penalty>  (323) 
1.88022e-07

>  <r_epik_Ionization_Penalty_Charging>  (323) 
0

>  <r_epik_Ionization_Penalty_Neutral>  (323) 
1.88022e-07

>  <r_epik_State_Penalty>  (323) 
-0

>  <r_epik_Charging_Adjusted_Penalty>  (323) 
0

>  <i_epik_Tot_Q>  (323) 
0

>  <i_epik_Tot_abs_Q>  (323) 
0

>  <s_lp_Force_Field>  (323) 
OPLS3e

>  <r_lp_Energy>  (323) 
34.773

>  <b_lp_Chiralities_Consistent>  (323) 
1

>  <s_lp_Variant>  (323) 
102:0-1

>  <s_i_glide_gridfile>  (323) 
pfpi4k_grid

>  <i_i_glide_lignum>  (323) 
15

>  <i_i_glide_rotatable_bonds>  (323) 
5

>  <r_i_docking_score>  (323) 
-2.37472

>  <r_i_glide_ligand_efficiency>  (323) 
-0.0848114

>  <r_i_glide_ligand_efficiency_sa>  (323) 
-0.257537

>  <r_i_glide_ligand_efficiency_ln>  (323) 
-0.548155

>  <r_i_glide_gscore>  (323) 
-2.37472

>  <r_i_glide_lipo>  (323) 
-0.327893

>  <r_i_glide_hbond>  (323) 
0

>  <r_i_glide_metal>  (323) 
-0

>  <r_i_glide_rewards>  (323) 
-0.80148

>  <r_i_glide_evdw>  (323) 
-22.9265

>  <r_i_glide_ecoul>  (323) 
-3.3158

>  <r_i_glide_erotb>  (323) 
0.398347

>  <r_i_glide_esite>  (323) 
0

>  <r_i_glide_emodel>  (323) 
-28.1372

>  <r_i_glide_energy>  (323) 
-26.2423

>  <r_i_glide_einternal>  (323) 
4.29751

>  <r_i_glide_intrahb_reward>  (323) 
-0

>  <i_i_glide_confnum>  (323) 
2

>  <i_i_glide_posenum>  (323) 
34

>  <r_i_glide_eff_state_penalty>  (323) 
0

>  <ligand_id>  (323) 
102

>  <original_smiles>  (323) 
CC1(C)C2=CC3C(=O)C4(O)C(OCc5ccccc5)C5OC5(C(O)CC21)C34C

>  <smiles>  (323) 
[H]OC1([H])C([H])([H])C2([H])C(=C([H])C3([H])C(=O)C4(O[H])C([H])(OC([H])([H])c5c([H])c([H])c([H])c([H])c5[H])C5([H])OC15C34C([H])([H])[H])C2(C([H])([H])[H])C([H])([H])[H]

$$$$
102:0:2
     RDKit          3D

 54 59  0  0  1  0  0  0  0  0999 V2000
    4.5737   -6.9697    0.7211 C   0  0  0  0  0  0  0  0  0  0  0  0
    4.0143   -8.0405    1.6367 C   0  0  0  0  0  0  0  0  0  0  0  0
    4.7175   -9.3747    1.4659 C   0  0  0  0  0  0  0  0  0  0  0  0
    3.5199   -7.6481    2.9784 C   0  0  0  0  0  0  0  0  0  0  0  0
    3.8203   -7.3513    4.2526 C   0  0  0  0  0  0  0  0  0  0  0  0
    2.8758   -7.2933    5.4558 C   0  0  1  0  0  0  0  0  0  0  0  0
    2.3796   -5.8914    5.8582 C   0  0  0  0  0  0  0  0  0  0  0  0
    2.8721   -4.7665    5.8773 O   0  0  0  0  0  0  0  0  0  0  0  0
    1.0041   -6.5071    6.2494 C   0  0  1  0  0  0  0  0  0  0  0  0
    0.8987   -6.6712    7.6512 O   0  0  0  0  0  0  0  0  0  0  0  0
   -0.2477   -5.8089    5.6951 C   0  0  1  0  0  0  0  0  0  0  0  0
   -0.1862   -4.3992    5.5426 O   0  0  0  0  0  0  0  0  0  0  0  0
   -0.2378   -3.6627    6.7504 C   0  0  0  0  0  0  0  0  0  0  0  0
   -0.2877   -2.1798    6.4475 C   0  0  0  0  0  0  0  0  0  0  0  0
    0.7277   -1.3221    6.9107 C   0  0  0  0  0  0  0  0  0  0  0  0
    0.6798    0.0525    6.6065 C   0  0  0  0  0  0  0  0  0  0  0  0
   -0.3812    0.5704    5.8385 C   0  0  0  0  0  0  0  0  0  0  0  0
   -1.3982   -0.2831    5.3742 C   0  0  0  0  0  0  0  0  0  0  0  0
   -1.3499   -1.6553    5.6803 C   0  0  0  0  0  0  0  0  0  0  0  0
   -0.4414   -6.4193    4.3328 C   0  0  1  0  0  0  0  0  0  0  0  0
    0.6634   -6.2768    3.4381 O   0  0  0  0  0  0  0  0  0  0  0  0
    0.5216   -7.5526    4.0926 C   0  0  2  0  0  0  0  0  0  0  0  0
    0.3315   -8.7261    3.1071 C   0  0  1  0  0  0  0  0  0  0  0  0
   -0.6151   -8.3756    2.1103 O   0  0  0  0  0  0  0  0  0  0  0  0
    1.6317   -9.1786    2.4156 C   0  0  0  0  0  0  0  0  0  0  0  0
    2.4839   -8.0060    1.9961 C   0  0  2  0  0  0  0  0  0  0  0  0
    1.3764   -7.7478    5.3677 C   0  0  1  0  0  0  0  0  0  0  0  0
    1.0816   -9.1079    6.0080 C   0  0  0  0  0  0  0  0  0  0  0  0
    4.4148   -7.2480   -0.3208 H   0  0  0  0  0  0  0  0  0  0  0  0
    5.6423   -6.8320    0.8872 H   0  0  0  0  0  0  0  0  0  0  0  0
    4.0691   -6.0201    0.8971 H   0  0  0  0  0  0  0  0  0  0  0  0
    4.5066   -9.7847    0.4792 H   0  0  0  0  0  0  0  0  0  0  0  0
    4.3606  -10.0953    2.2023 H   0  0  0  0  0  0  0  0  0  0  0  0
    5.7969   -9.2736    1.5822 H   0  0  0  0  0  0  0  0  0  0  0  0
    4.8609   -7.2122    4.4965 H   0  0  0  0  0  0  0  0  0  0  0  0
    3.3686   -7.7797    6.2977 H   0  0  0  0  0  0  0  0  0  0  0  0
    1.6754   -7.1335    7.9301 H   0  0  0  0  0  0  0  0  0  0  0  0
   -1.1203   -6.0558    6.2950 H   0  0  0  0  0  0  0  0  0  0  0  0
   -1.1286   -3.9345    7.3165 H   0  0  0  0  0  0  0  0  0  0  0  0
    0.6268   -3.8956    7.3716 H   0  0  0  0  0  0  0  0  0  0  0  0
    1.5523   -1.7194    7.4850 H   0  0  0  0  0  0  0  0  0  0  0  0
    1.4672    0.7059    6.9543 H   0  0  0  0  0  0  0  0  0  0  0  0
   -0.4084    1.6228    5.5937 H   0  0  0  0  0  0  0  0  0  0  0  0
   -2.2060    0.1077    4.7703 H   0  0  0  0  0  0  0  0  0  0  0  0
   -2.1237   -2.3074    5.3167 H   0  0  0  0  0  0  0  0  0  0  0  0
   -1.4340   -6.4230    3.8914 H   0  0  0  0  0  0  0  0  0  0  0  0
   -0.1014   -9.5775    3.6365 H   0  0  0  0  0  0  0  0  0  0  0  0
   -0.5744   -9.0312    1.4229 H   0  0  0  0  0  0  0  0  0  0  0  0
    2.2027   -9.8239    3.0866 H   0  0  0  0  0  0  0  0  0  0  0  0
    1.4195   -9.7766    1.5306 H   0  0  0  0  0  0  0  0  0  0  0  0
    1.9271   -7.2358    1.4688 H   0  0  0  0  0  0  0  0  0  0  0  0
    0.0129   -9.2609    6.1623 H   0  0  0  0  0  0  0  0  0  0  0  0
    1.5590   -9.1976    6.9863 H   0  0  0  0  0  0  0  0  0  0  0  0
    1.4620   -9.9372    5.4103 H   0  0  0  0  0  0  0  0  0  0  0  0
  1  2  1  0
  1 29  1  0
  1 30  1  0
  1 31  1  0
  2 26  1  0
  2  3  1  0
  2  4  1  0
  3 32  1  0
  3 33  1  0
  3 34  1  0
  4 26  1  0
  4  5  2  3
  5  6  1  0
  5 35  1  0
  6 27  1  0
  6  7  1  0
  6 36  1  1
  7  8  2  0
  7  9  1  0
  9 27  1  0
  9 10  1  1
  9 11  1  0
 10 37  1  0
 11 12  1  0
 11 20  1  0
 11 38  1  1
 12 13  1  0
 13 14  1  0
 13 39  1  0
 13 40  1  0
 14 19  1  0
 14 15  2  0
 15 16  1  0
 15 41  1  0
 16 17  2  0
 16 42  1  0
 17 18  1  0
 17 43  1  0
 18 19  2  0
 18 44  1  0
 19 45  1  0
 20 22  1  0
 20 21  1  0
 20 46  1  6
 22 21  1  6
 22 23  1  0
 22 27  1  0
 23 24  1  0
 23 25  1  0
 23 47  1  1
 24 48  1  0
 25 26  1  0
 25 49  1  0
 25 50  1  0
 26 51  1  6
 27 28  1  1
 28 52  1  0
 28 53  1  0
 28 54  1  0
M  END
>  <i_m_ct_stereo_status>  (324) 
1

>  <s_m_source_file>  (324) 
/var/tmp/pbs.5076255.sched01/tmparsu8qf0/123n9qi1oz7.sdf

>  <i_m_source_file_index>  (324) 
15

>  <i_lp_mmshare_version>  (324) 
48012

>  <i_f3d_flags>  (324) 
0

>  <s_epik_input>  (324) 
W09IXVtDQEhdMVtDSDJdW0NIXShDMihbQ0gzXSlbQ0gzXSlDXDI9W0NIXS9bQ0BASF0oQzM9TylbQ0BAXTQoW0NIM10pW0NAXTMoW09IXSlbQ0BIXShbQ0BASF0oTzUpW0NAXTE0NSlPW0NIMl1jNltjSF1bY0hdW2NIXVtjSF1bY0hdNg==

>  <s_epik_cmdline>  (324) 
J2VwaWtfcHl0aG9uJywgJy1waHQnLCAnMi4wJywgJy1waCcsICc3LjAnLCAnLXRuJywgJzgnLCAnLW1hJywgJzIwMCcsICctaW1hZScsICc8aW5maWxlLm1hZT4nLCAnLW9tYWUnLCAnPG91dGZpbGUubWFlPic=

>  <r_lp_tautomer_probability>  (324) 
1

>  <r_epik_Ionization_Penalty>  (324) 
1.88022e-07

>  <r_epik_Ionization_Penalty_Charging>  (324) 
0

>  <r_epik_Ionization_Penalty_Neutral>  (324) 
1.88022e-07

>  <r_epik_State_Penalty>  (324) 
-0

>  <r_epik_Charging_Adjusted_Penalty>  (324) 
0

>  <i_epik_Tot_Q>  (324) 
0

>  <i_epik_Tot_abs_Q>  (324) 
0

>  <s_lp_Force_Field>  (324) 
OPLS3e

>  <r_lp_Energy>  (324) 
34.773

>  <b_lp_Chiralities_Consistent>  (324) 
1

>  <s_lp_Variant>  (324) 
102:0-1

>  <s_i_glide_gridfile>  (324) 
pfpi4k_grid

>  <i_i_glide_lignum>  (324) 
15

>  <i_i_glide_rotatable_bonds>  (324) 
5

>  <r_i_docking_score>  (324) 
-2.22746

>  <r_i_glide_ligand_efficiency>  (324) 
-0.079552

>  <r_i_glide_ligand_efficiency_sa>  (324) 
-0.241567

>  <r_i_glide_ligand_efficiency_ln>  (324) 
-0.514162

>  <r_i_glide_gscore>  (324) 
-2.22746

>  <r_i_glide_lipo>  (324) 
-0.16301

>  <r_i_glide_hbond>  (324) 
0

>  <r_i_glide_metal>  (324) 
-0

>  <r_i_glide_rewards>  (324) 
-0.80148

>  <r_i_glide_evdw>  (324) 
-21.0955

>  <r_i_glide_ecoul>  (324) 
-4.04356

>  <r_i_glide_erotb>  (324) 
0.398347

>  <r_i_glide_esite>  (324) 
0

>  <r_i_glide_emodel>  (324) 
-27.6532

>  <r_i_glide_energy>  (324) 
-25.1391

>  <r_i_glide_einternal>  (324) 
2.92142

>  <r_i_glide_intrahb_reward>  (324) 
-0

>  <i_i_glide_confnum>  (324) 
4

>  <i_i_glide_posenum>  (324) 
2

>  <r_i_glide_eff_state_penalty>  (324) 
0

>  <ligand_id>  (324) 
102

>  <original_smiles>  (324) 
CC1(C)C2=CC3C(=O)C4(O)C(OCc5ccccc5)C5OC5(C(O)CC21)C34C

>  <smiles>  (324) 
[H]OC1([H])C([H])([H])C2([H])C(=C([H])C3([H])C(=O)C4(O[H])C([H])(OC([H])([H])c5c([H])c([H])c([H])c([H])c5[H])C5([H])OC15C34C([H])([H])[H])C2(C([H])([H])[H])C([H])([H])[H]

$$$$
102:1:0
     RDKit          3D

 54 59  0  0  1  0  0  0  0  0999 V2000
    5.4885   -0.6944    2.4900 C   0  0  0  0  0  0  0  0  0  0  0  0
    4.9507   -2.0154    1.9994 C   0  0  0  0  0  0  0  0  0  0  0  0
    5.7112   -2.4684    0.7730 C   0  0  0  0  0  0  0  0  0  0  0  0
    4.5288   -2.9544    3.1069 C   0  0  0  0  0  0  0  0  0  0  0  0
    4.6593   -4.1404    3.6853 C   0  0  0  0  0  0  0  0  0  0  0  0
    5.5429   -5.2783    3.2291 C   0  0  1  0  0  0  0  0  0  0  0  0
    5.2779   -6.5577    4.0669 C   0  0  0  0  0  0  0  0  0  0  0  0
    5.3250   -6.8264    5.2648 O   0  0  0  0  0  0  0  0  0  0  0  0
    4.9967   -7.3634    2.7843 C   0  0  1  0  0  0  0  0  0  0  0  0
    6.0600   -8.2606    2.5497 O   0  0  0  0  0  0  0  0  0  0  0  0
    3.6485   -8.0781    2.6567 C   0  0  1  0  0  0  0  0  0  0  0  0
    3.1941   -8.6649    3.8797 O   0  0  0  0  0  0  0  0  0  0  0  0
    2.1255   -9.6008    3.7313 C   0  0  0  0  0  0  0  0  0  0  0  0
    0.7422   -8.9789    3.5615 C   0  0  0  0  0  0  0  0  0  0  0  0
   -0.1726   -9.5715    2.6673 C   0  0  0  0  0  0  0  0  0  0  0  0
   -1.4531   -9.0097    2.4874 C   0  0  0  0  0  0  0  0  0  0  0  0
   -1.8312   -7.8750    3.2239 C   0  0  0  0  0  0  0  0  0  0  0  0
   -0.9296   -7.2842    4.1317 C   0  0  0  0  0  0  0  0  0  0  0  0
    0.3581   -7.8453    4.3053 C   0  0  0  0  0  0  0  0  0  0  0  0
    2.6955   -7.0395    2.0922 C   0  0  1  0  0  0  0  0  0  0  0  0
    2.5448   -5.8367    2.8146 O   0  0  0  0  0  0  0  0  0  0  0  0
    3.4555   -5.7827    1.7001 C   0  0  2  0  0  0  0  0  0  0  0  0
    3.0214   -4.6565    0.7518 C   0  0  1  0  0  0  0  0  0  0  0  0
    1.9355   -5.1580   -0.0011 O   0  0  0  0  0  0  0  0  0  0  0  0
    2.5613   -3.2934    1.3860 C   0  0  0  0  0  0  0  0  0  0  0  0
    3.4556   -2.3866    2.2552 C   0  0  2  0  0  0  0  0  0  0  0  0
    4.9506   -6.0170    2.0099 C   0  0  1  0  0  0  0  0  0  0  0  0
    5.8016   -6.0318    0.7437 C   0  0  0  0  0  0  0  0  0  0  0  0
    5.2944    0.0861    1.7551 H   0  0  0  0  0  0  0  0  0  0  0  0
    6.5607   -0.7595    2.6825 H   0  0  0  0  0  0  0  0  0  0  0  0
    4.9878   -0.4236    3.4161 H   0  0  0  0  0  0  0  0  0  0  0  0
    6.1725   -1.6112    0.2778 H   0  0  0  0  0  0  0  0  0  0  0  0
    5.0380   -2.8836    0.0319 H   0  0  0  0  0  0  0  0  0  0  0  0
    6.4985   -3.1807    1.0269 H   0  0  0  0  0  0  0  0  0  0  0  0
    3.8314   -4.4572    4.3084 H   0  0  0  0  0  0  0  0  0  0  0  0
    6.6012   -5.0126    3.1356 H   0  0  0  0  0  0  0  0  0  0  0  0
    5.8147   -8.7899    1.8067 H   0  0  0  0  0  0  0  0  0  0  0  0
    3.7621   -8.8759    1.9074 H   0  0  0  0  0  0  0  0  0  0  0  0
    2.3380  -10.2840    2.9097 H   0  0  0  0  0  0  0  0  0  0  0  0
    2.1018  -10.2033    4.6326 H   0  0  0  0  0  0  0  0  0  0  0  0
    0.1061  -10.4469    2.0977 H   0  0  0  0  0  0  0  0  0  0  0  0
   -2.1462   -9.4593    1.7853 H   0  0  0  0  0  0  0  0  0  0  0  0
   -2.8304   -7.4786    3.0922 H   0  0  0  0  0  0  0  0  0  0  0  0
   -1.2115   -6.4087    4.7012 H   0  0  0  0  0  0  0  0  0  0  0  0
    1.0556   -7.3989    4.9995 H   0  0  0  0  0  0  0  0  0  0  0  0
    1.8503   -7.3623    1.4973 H   0  0  0  0  0  0  0  0  0  0  0  0
    3.7750   -4.4939   -0.0033 H   0  0  0  0  0  0  0  0  0  0  0  0
    2.2451   -5.3656   -0.8751 H   0  0  0  0  0  0  0  0  0  0  0  0
    2.2461   -2.6468    0.5654 H   0  0  0  0  0  0  0  0  0  0  0  0
    1.6571   -3.4551    1.9824 H   0  0  0  0  0  0  0  0  0  0  0  0
    2.8598   -1.5772    2.6662 H   0  0  0  0  0  0  0  0  0  0  0  0
    5.4474   -6.8121    0.0768 H   0  0  0  0  0  0  0  0  0  0  0  0
    6.8518   -6.2276    0.9825 H   0  0  0  0  0  0  0  0  0  0  0  0
    5.7937   -5.0991    0.1842 H   0  0  0  0  0  0  0  0  0  0  0  0
  1  2  1  0
  1 29  1  0
  1 30  1  0
  1 31  1  0
  2 26  1  0
  2  3  1  0
  2  4  1  0
  3 32  1  0
  3 33  1  0
  3 34  1  0
  4 26  1  0
  4  5  2  3
  5  6  1  0
  5 35  1  0
  6 27  1  0
  6  7  1  0
  6 36  1  6
  7  8  2  0
  7  9  1  0
  9 27  1  0
  9 10  1  6
  9 11  1  0
 10 37  1  0
 11 12  1  0
 11 20  1  0
 11 38  1  6
 12 13  1  0
 13 14  1  0
 13 39  1  0
 13 40  1  0
 14 19  1  0
 14 15  2  0
 15 16  1  0
 15 41  1  0
 16 17  2  0
 16 42  1  0
 17 18  1  0
 17 43  1  0
 18 19  2  0
 18 44  1  0
 19 45  1  0
 20 22  1  0
 20 21  1  0
 20 46  1  6
 22 21  1  1
 22 23  1  0
 22 27  1  0
 23 24  1  0
 23 25  1  0
 23 47  1  6
 24 48  1  0
 25 26  1  0
 25 49  1  0
 25 50  1  0
 26 51  1  1
 27 28  1  6
 28 52  1  0
 28 53  1  0
 28 54  1  0
M  END
>  <i_m_ct_stereo_status>  (325) 
1

>  <s_m_source_file>  (325) 
/var/tmp/pbs.5076255.sched01/tmparsu8qf0/123n9qi1oz7.sdf

>  <i_m_source_file_index>  (325) 
16

>  <i_lp_mmshare_version>  (325) 
48012

>  <i_f3d_flags>  (325) 
0

>  <s_epik_input>  (325) 
W09IXVtDQEhdMVtDSDJdW0NIXShDMihbQ0gzXSlbQ0gzXSlDXDI9W0NIXS9bQ0BASF0oQzM9TylbQ0BAXTQoW0NIM10pW0NAXTMoW09IXSlbQ0BIXShbQ0BASF0oTzUpW0NAXTE0NSlPW0NIMl1jNltjSF1bY0hdW2NIXVtjSF1bY0hdNg==

>  <s_epik_cmdline>  (325) 
J2VwaWtfcHl0aG9uJywgJy1waHQnLCAnMi4wJywgJy1waCcsICc3LjAnLCAnLXRuJywgJzgnLCAnLW1hJywgJzIwMCcsICctaW1hZScsICc8aW5maWxlLm1hZT4nLCAnLW9tYWUnLCAnPG91dGZpbGUubWFlPic=

>  <r_lp_tautomer_probability>  (325) 
1

>  <r_epik_Ionization_Penalty>  (325) 
1.88022e-07

>  <r_epik_Ionization_Penalty_Charging>  (325) 
0

>  <r_epik_Ionization_Penalty_Neutral>  (325) 
1.88022e-07

>  <r_epik_State_Penalty>  (325) 
-0

>  <r_epik_Charging_Adjusted_Penalty>  (325) 
0

>  <i_epik_Tot_Q>  (325) 
0

>  <i_epik_Tot_abs_Q>  (325) 
0

>  <s_lp_Force_Field>  (325) 
OPLS3e

>  <r_lp_Energy>  (325) 
66.6656

>  <b_lp_Chiralities_Consistent>  (325) 
1

>  <s_lp_Variant>  (325) 
102:0-2

>  <s_i_glide_gridfile>  (325) 
pfpi4k_grid

>  <i_i_glide_lignum>  (325) 
16

>  <i_i_glide_rotatable_bonds>  (325) 
5

>  <r_i_docking_score>  (325) 
-2.7347

>  <r_i_glide_ligand_efficiency>  (325) 
-0.0976677

>  <r_i_glide_ligand_efficiency_sa>  (325) 
-0.296577

>  <r_i_glide_ligand_efficiency_ln>  (325) 
-0.631248

>  <r_i_glide_gscore>  (325) 
-2.7347

>  <r_i_glide_lipo>  (325) 
-0.550166

>  <r_i_glide_hbond>  (325) 
0

>  <r_i_glide_metal>  (325) 
-0

>  <r_i_glide_rewards>  (325) 
-0.80148

>  <r_i_glide_evdw>  (325) 
-22.4731

>  <r_i_glide_ecoul>  (325) 
-4.38493

>  <r_i_glide_erotb>  (325) 
0.398347

>  <r_i_glide_esite>  (325) 
0

>  <r_i_glide_emodel>  (325) 
-29.8288

>  <r_i_glide_energy>  (325) 
-26.8581

>  <r_i_glide_einternal>  (325) 
3.66351

>  <r_i_glide_intrahb_reward>  (325) 
-0

>  <i_i_glide_confnum>  (325) 
2

>  <i_i_glide_posenum>  (325) 
5

>  <r_i_glide_eff_state_penalty>  (325) 
0

>  <ligand_id>  (325) 
102

>  <original_smiles>  (325) 
CC1(C)C2=CC3C(=O)C4(O)C(OCc5ccccc5)C5OC5(C(O)CC21)C34C

>  <smiles>  (325) 
[H]OC1([H])C([H])([H])C2([H])C(=C([H])C3([H])C(=O)C4(O[H])C([H])(OC([H])([H])c5c([H])c([H])c([H])c([H])c5[H])C5([H])OC15C34C([H])([H])[H])C2(C([H])([H])[H])C([H])([H])[H]

$$$$
102:1:1
     RDKit          3D

 54 59  0  0  1  0  0  0  0  0999 V2000
   -1.9748    2.8743    8.9739 C   0  0  0  0  0  0  0  0  0  0  0  0
   -1.4577    3.0436    7.5733 C   0  0  0  0  0  0  0  0  0  0  0  0
   -0.5478    4.2446    7.4967 C   0  0  0  0  0  0  0  0  0  0  0  0
   -1.1508    1.7234    6.8903 C   0  0  0  0  0  0  0  0  0  0  0  0
   -0.2377    0.9965    6.2707 C   0  0  0  0  0  0  0  0  0  0  0  0
    1.1823    1.4105    5.9670 C   0  0  1  0  0  0  0  0  0  0  0  0
    1.8820    0.3268    5.1484 C   0  0  0  0  0  0  0  0  0  0  0  0
    2.1358   -0.8580    5.4002 O   0  0  0  0  0  0  0  0  0  0  0  0
    2.2617    1.3380    4.0373 C   0  0  1  0  0  0  0  0  0  0  0  0
    3.6650    1.5357    4.0740 O   0  0  0  0  0  0  0  0  0  0  0  0
    1.7666    1.1149    2.5812 C   0  0  1  0  0  0  0  0  0  0  0  0
    1.6568   -0.2455    2.1889 O   0  0  0  0  0  0  0  0  0  0  0  0
    2.8339   -0.8102    1.6310 C   0  0  0  0  0  0  0  0  0  0  0  0
    2.7370   -2.3281    1.6112 C   0  0  0  0  0  0  0  0  0  0  0  0
    3.0326   -3.0785    0.4646 C   0  0  0  0  0  0  0  0  0  0  0  0
    2.9293   -4.4889    0.4851 C   0  0  0  0  0  0  0  0  0  0  0  0
    2.5428   -5.1574    1.6732 C   0  0  0  0  0  0  0  0  0  0  0  0
    2.2539   -4.4142    2.8249 C   0  0  0  0  0  0  0  0  0  0  0  0
    2.3441   -3.0056    2.7926 C   0  0  0  0  0  0  0  0  0  0  0  0
    0.3890    1.7256    2.5323 C   0  0  1  0  0  0  0  0  0  0  0  0
   -0.5485    1.2222    3.4534 O   0  0  0  0  0  0  0  0  0  0  0  0
    0.0934    2.4599    3.8264 C   0  0  2  0  0  0  0  0  0  0  0  0
   -0.9792    3.5198    4.1190 C   0  0  1  0  0  0  0  0  0  0  0  0
   -1.4529    4.0810    2.8979 O   0  0  0  0  0  0  0  0  0  0  0  0
   -2.2633    3.0651    4.9049 C   0  0  0  0  0  0  0  0  0  0  0  0
   -2.2825    2.5201    6.3499 C   0  0  2  0  0  0  0  0  0  0  0  0
    1.3156    2.3481    4.7514 C   0  0  1  0  0  0  0  0  0  0  0  0
    1.9856    3.6861    5.0289 C   0  0  0  0  0  0  0  0  0  0  0  0
   -2.6220    3.7073    9.2330 H   0  0  0  0  0  0  0  0  0  0  0  0
   -1.1516    2.8217    9.6871 H   0  0  0  0  0  0  0  0  0  0  0  0
   -2.5504    1.9572    9.0432 H   0  0  0  0  0  0  0  0  0  0  0  0
   -0.7876    4.9433    8.3023 H   0  0  0  0  0  0  0  0  0  0  0  0
   -0.7285    4.8024    6.5836 H   0  0  0  0  0  0  0  0  0  0  0  0
    0.5081    3.9720    7.5900 H   0  0  0  0  0  0  0  0  0  0  0  0
   -0.6175    0.2103    5.6190 H   0  0  0  0  0  0  0  0  0  0  0  0
    1.7533    1.6953    6.8513 H   0  0  0  0  0  0  0  0  0  0  0  0
    3.8858    2.1409    3.3866 H   0  0  0  0  0  0  0  0  0  0  0  0
    2.3778    1.6826    1.8708 H   0  0  0  0  0  0  0  0  0  0  0  0
    2.9760   -0.3955    0.6334 H   0  0  0  0  0  0  0  0  0  0  0  0
    3.7026   -0.5344    2.2274 H   0  0  0  0  0  0  0  0  0  0  0  0
    3.3136   -2.5636   -0.4436 H   0  0  0  0  0  0  0  0  0  0  0  0
    3.1338   -5.0577   -0.4071 H   0  0  0  0  0  0  0  0  0  0  0  0
    2.4498   -6.2353    1.7016 H   0  0  0  0  0  0  0  0  0  0  0  0
    1.9468   -4.8873    3.7544 H   0  0  0  0  0  0  0  0  0  0  0  0
    2.0870   -2.4556    3.6808 H   0  0  0  0  0  0  0  0  0  0  0  0
    0.0005    2.1097    1.5879 H   0  0  0  0  0  0  0  0  0  0  0  0
   -0.5076    4.3612    4.6015 H   0  0  0  0  0  0  0  0  0  0  0  0
   -0.7499    4.1413    2.2480 H   0  0  0  0  0  0  0  0  0  0  0  0
   -2.8976    3.9422    4.9845 H   0  0  0  0  0  0  0  0  0  0  0  0
   -2.8380    2.3629    4.2859 H   0  0  0  0  0  0  0  0  0  0  0  0
   -3.2921    2.2222    6.6197 H   0  0  0  0  0  0  0  0  0  0  0  0
    2.3374    4.1595    4.1102 H   0  0  0  0  0  0  0  0  0  0  0  0
    2.8571    3.5419    5.6800 H   0  0  0  0  0  0  0  0  0  0  0  0
    1.3514    4.3920    5.5584 H   0  0  0  0  0  0  0  0  0  0  0  0
  1  2  1  0
  1 29  1  0
  1 30  1  0
  1 31  1  0
  2 26  1  0
  2  3  1  0
  2  4  1  0
  3 32  1  0
  3 33  1  0
  3 34  1  0
  4 26  1  0
  4  5  2  3
  5  6  1  0
  5 35  1  0
  6 27  1  0
  6  7  1  0
  6 36  1  1
  7  8  2  0
  7  9  1  0
  9 27  1  0
  9 10  1  6
  9 11  1  0
 10 37  1  0
 11 12  1  0
 11 20  1  0
 11 38  1  6
 12 13  1  0
 13 14  1  0
 13 39  1  0
 13 40  1  0
 14 19  1  0
 14 15  2  0
 15 16  1  0
 15 41  1  0
 16 17  2  0
 16 42  1  0
 17 18  1  0
 17 43  1  0
 18 19  2  0
 18 44  1  0
 19 45  1  0
 20 22  1  0
 20 21  1  0
 20 46  1  6
 22 21  1  1
 22 23  1  0
 22 27  1  0
 23 24  1  0
 23 25  1  0
 23 47  1  1
 24 48  1  0
 25 26  1  0
 25 49  1  0
 25 50  1  0
 26 51  1  1
 27 28  1  1
 28 52  1  0
 28 53  1  0
 28 54  1  0
M  END
>  <i_m_ct_stereo_status>  (326) 
1

>  <s_m_source_file>  (326) 
/var/tmp/pbs.5076255.sched01/tmparsu8qf0/123n9qi1oz7.sdf

>  <i_m_source_file_index>  (326) 
16

>  <i_lp_mmshare_version>  (326) 
48012

>  <i_f3d_flags>  (326) 
0

>  <s_epik_input>  (326) 
W09IXVtDQEhdMVtDSDJdW0NIXShDMihbQ0gzXSlbQ0gzXSlDXDI9W0NIXS9bQ0BASF0oQzM9TylbQ0BAXTQoW0NIM10pW0NAXTMoW09IXSlbQ0BIXShbQ0BASF0oTzUpW0NAXTE0NSlPW0NIMl1jNltjSF1bY0hdW2NIXVtjSF1bY0hdNg==

>  <s_epik_cmdline>  (326) 
J2VwaWtfcHl0aG9uJywgJy1waHQnLCAnMi4wJywgJy1waCcsICc3LjAnLCAnLXRuJywgJzgnLCAnLW1hJywgJzIwMCcsICctaW1hZScsICc8aW5maWxlLm1hZT4nLCAnLW9tYWUnLCAnPG91dGZpbGUubWFlPic=

>  <r_lp_tautomer_probability>  (326) 
1

>  <r_epik_Ionization_Penalty>  (326) 
1.88022e-07

>  <r_epik_Ionization_Penalty_Charging>  (326) 
0

>  <r_epik_Ionization_Penalty_Neutral>  (326) 
1.88022e-07

>  <r_epik_State_Penalty>  (326) 
-0

>  <r_epik_Charging_Adjusted_Penalty>  (326) 
0

>  <i_epik_Tot_Q>  (326) 
0

>  <i_epik_Tot_abs_Q>  (326) 
0

>  <s_lp_Force_Field>  (326) 
OPLS3e

>  <r_lp_Energy>  (326) 
66.6656

>  <b_lp_Chiralities_Consistent>  (326) 
1

>  <s_lp_Variant>  (326) 
102:0-2

>  <s_i_glide_gridfile>  (326) 
pfpi4k_grid

>  <i_i_glide_lignum>  (326) 
16

>  <i_i_glide_rotatable_bonds>  (326) 
5

>  <r_i_docking_score>  (326) 
-2.50837

>  <r_i_glide_ligand_efficiency>  (326) 
-0.0895845

>  <r_i_glide_ligand_efficiency_sa>  (326) 
-0.272031

>  <r_i_glide_ligand_efficiency_ln>  (326) 
-0.579005

>  <r_i_glide_gscore>  (326) 
-2.50837

>  <r_i_glide_lipo>  (326) 
-0.118976

>  <r_i_glide_hbond>  (326) 
0

>  <r_i_glide_metal>  (326) 
-0

>  <r_i_glide_rewards>  (326) 
-0.80148

>  <r_i_glide_evdw>  (326) 
-19.7685

>  <r_i_glide_ecoul>  (326) 
-6.65133

>  <r_i_glide_erotb>  (326) 
0.398347

>  <r_i_glide_esite>  (326) 
-0.000134837

>  <r_i_glide_emodel>  (326) 
-29.5098

>  <r_i_glide_energy>  (326) 
-26.4198

>  <r_i_glide_einternal>  (326) 
1.6029

>  <r_i_glide_intrahb_reward>  (326) 
-0

>  <i_i_glide_confnum>  (326) 
3

>  <i_i_glide_posenum>  (326) 
1

>  <r_i_glide_eff_state_penalty>  (326) 
0

>  <ligand_id>  (326) 
102

>  <original_smiles>  (326) 
CC1(C)C2=CC3C(=O)C4(O)C(OCc5ccccc5)C5OC5(C(O)CC21)C34C

>  <smiles>  (326) 
[H]OC1([H])C([H])([H])C2([H])C(=C([H])C3([H])C(=O)C4(O[H])C([H])(OC([H])([H])c5c([H])c([H])c([H])c([H])c5[H])C5([H])OC15C34C([H])([H])[H])C2(C([H])([H])[H])C([H])([H])[H]

$$$$
102:1:2
     RDKit          3D

 54 59  0  0  1  0  0  0  0  0999 V2000
    0.6213  -11.0772    3.6592 C   0  0  0  0  0  0  0  0  0  0  0  0
    1.9213  -10.3035    3.6534 C   0  0  0  0  0  0  0  0  0  0  0  0
    2.9508  -11.0310    2.8165 C   0  0  0  0  0  0  0  0  0  0  0  0
    1.7251   -8.8130    3.6275 C   0  0  0  0  0  0  0  0  0  0  0  0
    1.9700   -7.6586    3.0102 C   0  0  0  0  0  0  0  0  0  0  0  0
    2.7883   -7.4521    1.7567 C   0  0  1  0  0  0  0  0  0  0  0  0
    2.9892   -5.9545    1.4429 C   0  0  0  0  0  0  0  0  0  0  0  0
    2.2226   -5.0263    1.2318 O   0  0  0  0  0  0  0  0  0  0  0  0
    4.5296   -6.1274    1.4398 C   0  0  1  0  0  0  0  0  0  0  0  0
    5.0122   -5.9837    0.1192 O   0  0  0  0  0  0  0  0  0  0  0  0
    5.3617   -5.2524    2.3971 C   0  0  1  0  0  0  0  0  0  0  0  0
    4.8418   -3.9709    2.6983 O   0  0  0  0  0  0  0  0  0  0  0  0
    4.9281   -3.0373    1.6376 C   0  0  0  0  0  0  0  0  0  0  0  0
    4.2428   -1.7454    2.0315 C   0  0  0  0  0  0  0  0  0  0  0  0
    4.6998   -1.0286    3.1510 C   0  0  0  0  0  0  0  0  0  0  0  0
    4.0526    0.1624    3.5416 C   0  0  0  0  0  0  0  0  0  0  0  0
    2.9548    0.6397    2.8045 C   0  0  0  0  0  0  0  0  0  0  0  0
    2.4940   -0.0777    1.6811 C   0  0  0  0  0  0  0  0  0  0  0  0
    3.1378   -1.2690    1.2968 C   0  0  0  0  0  0  0  0  0  0  0  0
    5.3984   -6.0467    3.6867 C   0  0  1  0  0  0  0  0  0  0  0  0
    4.1472   -6.3448    4.2797 O   0  0  0  0  0  0  0  0  0  0  0  0
    4.7607   -7.4047    3.5174 C   0  0  2  0  0  0  0  0  0  0  0  0
    4.8964   -8.6626    4.4008 C   0  0  1  0  0  0  0  0  0  0  0  0
    6.0460   -8.4639    5.1960 O   0  0  0  0  0  0  0  0  0  0  0  0
    3.7138   -9.0417    5.3622 C   0  0  0  0  0  0  0  0  0  0  0  0
    2.2897   -9.3893    4.8715 C   0  0  2  0  0  0  0  0  0  0  0  0
    4.3074   -7.5513    2.0401 C   0  0  1  0  0  0  0  0  0  0  0  0
    5.0952   -8.6255    1.2901 C   0  0  0  0  0  0  0  0  0  0  0  0
    0.7476  -12.0316    4.1716 H   0  0  0  0  0  0  0  0  0  0  0  0
    0.2658  -11.2490    2.6418 H   0  0  0  0  0  0  0  0  0  0  0  0
   -0.1422  -10.5059    4.1936 H   0  0  0  0  0  0  0  0  0  0  0  0
    2.7035  -12.0894    2.7445 H   0  0  0  0  0  0  0  0  0  0  0  0
    3.9230  -11.0065    3.2894 H   0  0  0  0  0  0  0  0  0  0  0  0
    2.9937  -10.6293    1.8081 H   0  0  0  0  0  0  0  0  0  0  0  0
    1.8814   -6.7663    3.6221 H   0  0  0  0  0  0  0  0  0  0  0  0
    2.4471   -8.0595    0.9109 H   0  0  0  0  0  0  0  0  0  0  0  0
    4.3252   -6.2918   -0.4636 H   0  0  0  0  0  0  0  0  0  0  0  0
    6.3855   -5.1645    2.0365 H   0  0  0  0  0  0  0  0  0  0  0  0
    5.9715   -2.8375    1.4029 H   0  0  0  0  0  0  0  0  0  0  0  0
    4.4589   -3.4255    0.7384 H   0  0  0  0  0  0  0  0  0  0  0  0
    5.5426   -1.3998    3.7206 H   0  0  0  0  0  0  0  0  0  0  0  0
    4.4093    0.7135    4.4040 H   0  0  0  0  0  0  0  0  0  0  0  0
    2.4598    1.5586    3.0941 H   0  0  0  0  0  0  0  0  0  0  0  0
    1.6452    0.2790    1.1086 H   0  0  0  0  0  0  0  0  0  0  0  0
    2.7649   -1.8203    0.4407 H   0  0  0  0  0  0  0  0  0  0  0  0
    6.2323   -5.9001    4.3714 H   0  0  0  0  0  0  0  0  0  0  0  0
    5.1966   -9.4998    3.7914 H   0  0  0  0  0  0  0  0  0  0  0  0
    6.2573   -9.2853    5.6298 H   0  0  0  0  0  0  0  0  0  0  0  0
    4.0193   -9.9283    5.9199 H   0  0  0  0  0  0  0  0  0  0  0  0
    3.5959   -8.2671    6.1201 H   0  0  0  0  0  0  0  0  0  0  0  0
    1.6180   -9.5086    5.7220 H   0  0  0  0  0  0  0  0  0  0  0  0
    6.1607   -8.4010    1.2810 H   0  0  0  0  0  0  0  0  0  0  0  0
    4.7625   -8.6781    0.2495 H   0  0  0  0  0  0  0  0  0  0  0  0
    4.9652   -9.6218    1.6928 H   0  0  0  0  0  0  0  0  0  0  0  0
  1  2  1  0
  1 29  1  0
  1 30  1  0
  1 31  1  0
  2 26  1  0
  2  3  1  0
  2  4  1  0
  3 32  1  0
  3 33  1  0
  3 34  1  0
  4 26  1  0
  4  5  2  3
  5  6  1  0
  5 35  1  0
  6 27  1  0
  6  7  1  0
  6 36  1  6
  7  8  2  0
  7  9  1  0
  9 27  1  0
  9 10  1  6
  9 11  1  0
 10 37  1  0
 11 12  1  0
 11 20  1  0
 11 38  1  6
 12 13  1  0
 13 14  1  0
 13 39  1  0
 13 40  1  0
 14 19  1  0
 14 15  2  0
 15 16  1  0
 15 41  1  0
 16 17  2  0
 16 42  1  0
 17 18  1  0
 17 43  1  0
 18 19  2  0
 18 44  1  0
 19 45  1  0
 20 22  1  0
 20 21  1  0
 20 46  1  1
 22 21  1  1
 22 23  1  0
 22 27  1  0
 23 24  1  0
 23 25  1  0
 23 47  1  6
 24 48  1  0
 25 26  1  0
 25 49  1  0
 25 50  1  0
 26 51  1  1
 27 28  1  6
 28 52  1  0
 28 53  1  0
 28 54  1  0
M  END
>  <i_m_ct_stereo_status>  (327) 
1

>  <s_m_source_file>  (327) 
/var/tmp/pbs.5076255.sched01/tmparsu8qf0/123n9qi1oz7.sdf

>  <i_m_source_file_index>  (327) 
16

>  <i_lp_mmshare_version>  (327) 
48012

>  <i_f3d_flags>  (327) 
0

>  <s_epik_input>  (327) 
W09IXVtDQEhdMVtDSDJdW0NIXShDMihbQ0gzXSlbQ0gzXSlDXDI9W0NIXS9bQ0BASF0oQzM9TylbQ0BAXTQoW0NIM10pW0NAXTMoW09IXSlbQ0BIXShbQ0BASF0oTzUpW0NAXTE0NSlPW0NIMl1jNltjSF1bY0hdW2NIXVtjSF1bY0hdNg==

>  <s_epik_cmdline>  (327) 
J2VwaWtfcHl0aG9uJywgJy1waHQnLCAnMi4wJywgJy1waCcsICc3LjAnLCAnLXRuJywgJzgnLCAnLW1hJywgJzIwMCcsICctaW1hZScsICc8aW5maWxlLm1hZT4nLCAnLW9tYWUnLCAnPG91dGZpbGUubWFlPic=

>  <r_lp_tautomer_probability>  (327) 
1

>  <r_epik_Ionization_Penalty>  (327) 
1.88022e-07

>  <r_epik_Ionization_Penalty_Charging>  (327) 
0

>  <r_epik_Ionization_Penalty_Neutral>  (327) 
1.88022e-07

>  <r_epik_State_Penalty>  (327) 
-0

>  <r_epik_Charging_Adjusted_Penalty>  (327) 
0

>  <i_epik_Tot_Q>  (327) 
0

>  <i_epik_Tot_abs_Q>  (327) 
0

>  <s_lp_Force_Field>  (327) 
OPLS3e

>  <r_lp_Energy>  (327) 
66.6656

>  <b_lp_Chiralities_Consistent>  (327) 
1

>  <s_lp_Variant>  (327) 
102:0-2

>  <s_i_glide_gridfile>  (327) 
pfpi4k_grid

>  <i_i_glide_lignum>  (327) 
16

>  <i_i_glide_rotatable_bonds>  (327) 
5

>  <r_i_docking_score>  (327) 
-2.09564

>  <r_i_glide_ligand_efficiency>  (327) 
-0.0748442

>  <r_i_glide_ligand_efficiency_sa>  (327) 
-0.227271

>  <r_i_glide_ligand_efficiency_ln>  (327) 
-0.483734

>  <r_i_glide_gscore>  (327) 
-2.09564

>  <r_i_glide_lipo>  (327) 
-0.307342

>  <r_i_glide_hbond>  (327) 
-0.0102605

>  <r_i_glide_metal>  (327) 
-0

>  <r_i_glide_rewards>  (327) 
-0.821523

>  <r_i_glide_evdw>  (327) 
-21.7808

>  <r_i_glide_ecoul>  (327) 
-1.77212

>  <r_i_glide_erotb>  (327) 
0.398347

>  <r_i_glide_esite>  (327) 
0

>  <r_i_glide_emodel>  (327) 
-25.4712

>  <r_i_glide_energy>  (327) 
-23.5529

>  <r_i_glide_einternal>  (327) 
3.19612

>  <r_i_glide_intrahb_reward>  (327) 
-0

>  <i_i_glide_confnum>  (327) 
3

>  <i_i_glide_posenum>  (327) 
17

>  <r_i_glide_eff_state_penalty>  (327) 
0

>  <ligand_id>  (327) 
102

>  <original_smiles>  (327) 
CC1(C)C2=CC3C(=O)C4(O)C(OCc5ccccc5)C5OC5(C(O)CC21)C34C

>  <smiles>  (327) 
[H]OC1([H])C([H])([H])C2([H])C(=C([H])C3([H])C(=O)C4(O[H])C([H])(OC([H])([H])c5c([H])c([H])c([H])c([H])c5[H])C5([H])OC15C34C([H])([H])[H])C2(C([H])([H])[H])C([H])([H])[H]

$$$$
102:2:0
     RDKit          3D

 54 59  0  0  1  0  0  0  0  0999 V2000
   -0.7704   -9.3829    2.4829 C   0  0  0  0  0  0  0  0  0  0  0  0
    0.4761   -9.6048    3.3233 C   0  0  0  0  0  0  0  0  0  0  0  0
    0.6667  -11.0650    3.6877 C   0  0  0  0  0  0  0  0  0  0  0  0
    1.6601   -8.7562    3.0565 C   0  0  0  0  0  0  0  0  0  0  0  0
    2.6922   -8.4502    2.2571 C   0  0  0  0  0  0  0  0  0  0  0  0
    3.7905   -7.4465    2.5890 C   0  0  1  0  0  0  0  0  0  0  0  0
    4.0820   -6.4388    1.4624 C   0  0  0  0  0  0  0  0  0  0  0  0
    4.2066   -6.5214    0.2449 O   0  0  0  0  0  0  0  0  0  0  0  0
    4.2117   -5.3006    2.5096 C   0  0  1  0  0  0  0  0  0  0  0  0
    5.5704   -4.9648    2.7164 O   0  0  0  0  0  0  0  0  0  0  0  0
    3.3752   -4.0365    2.2549 C   0  0  1  0  0  0  0  0  0  0  0  0
    3.1582   -3.6674    0.9036 O   0  0  0  0  0  0  0  0  0  0  0  0
    4.2709   -3.0721    0.2558 C   0  0  0  0  0  0  0  0  0  0  0  0
    3.8638   -2.5226   -1.0962 C   0  0  0  0  0  0  0  0  0  0  0  0
    4.3803   -1.2981   -1.5597 C   0  0  0  0  0  0  0  0  0  0  0  0
    3.9772   -0.7885   -2.8091 C   0  0  0  0  0  0  0  0  0  0  0  0
    3.0662   -1.5101   -3.6048 C   0  0  0  0  0  0  0  0  0  0  0  0
    2.5557   -2.7382   -3.1488 C   0  0  0  0  0  0  0  0  0  0  0  0
    2.9521   -3.2383   -1.8944 C   0  0  0  0  0  0  0  0  0  0  0  0
    2.0303   -4.3380    2.8633 C   0  0  1  0  0  0  0  0  0  0  0  0
    1.3563   -5.5080    2.3992 O   0  0  0  0  0  0  0  0  0  0  0  0
    2.0708   -5.6323    3.6438 C   0  0  2  0  0  0  0  0  0  0  0  0
    1.1463   -6.0033    4.8163 C   0  0  1  0  0  0  0  0  0  0  0  0
    0.3268   -4.8907    5.1218 O   0  0  0  0  0  0  0  0  0  0  0  0
    0.2374   -7.2110    4.5348 C   0  0  0  0  0  0  0  0  0  0  0  0
    0.9887   -8.5108    4.3410 C   0  0  1  0  0  0  0  0  0  0  0  0
    3.4927   -6.2370    3.5382 C   0  0  1  0  0  0  0  0  0  0  0  0
    4.1635   -6.3242    4.9121 C   0  0  0  0  0  0  0  0  0  0  0  0
   -1.6593   -9.4271    3.1145 H   0  0  0  0  0  0  0  0  0  0  0  0
   -0.8599  -10.1434    1.7055 H   0  0  0  0  0  0  0  0  0  0  0  0
   -0.7331   -8.4099    1.9915 H   0  0  0  0  0  0  0  0  0  0  0  0
   -0.1766  -11.4096    4.2839 H   0  0  0  0  0  0  0  0  0  0  0  0
    1.5684  -11.2000    4.2841 H   0  0  0  0  0  0  0  0  0  0  0  0
    0.7371  -11.6910    2.7995 H   0  0  0  0  0  0  0  0  0  0  0  0
    2.8040   -8.9892    1.3301 H   0  0  0  0  0  0  0  0  0  0  0  0
    4.7001   -7.9755    2.8775 H   0  0  0  0  0  0  0  0  0  0  0  0
    6.0382   -5.7777    2.8362 H   0  0  0  0  0  0  0  0  0  0  0  0
    3.7915   -3.1887    2.8011 H   0  0  0  0  0  0  0  0  0  0  0  0
    4.6720   -2.2656    0.8694 H   0  0  0  0  0  0  0  0  0  0  0  0
    5.0634   -3.8066    0.1154 H   0  0  0  0  0  0  0  0  0  0  0  0
    5.0618   -0.7332   -0.9411 H   0  0  0  0  0  0  0  0  0  0  0  0
    4.3458    0.1712   -3.1415 H   0  0  0  0  0  0  0  0  0  0  0  0
    2.7348   -1.1096   -4.5522 H   0  0  0  0  0  0  0  0  0  0  0  0
    1.8387   -3.2907   -3.7423 H   0  0  0  0  0  0  0  0  0  0  0  0
    2.5478   -4.1741   -1.5351 H   0  0  0  0  0  0  0  0  0  0  0  0
    1.3950   -3.5022    3.1498 H   0  0  0  0  0  0  0  0  0  0  0  0
    1.7251   -6.1868    5.7202 H   0  0  0  0  0  0  0  0  0  0  0  0
   -0.1222   -4.6346    4.3273 H   0  0  0  0  0  0  0  0  0  0  0  0
   -0.4320   -7.3671    5.3799 H   0  0  0  0  0  0  0  0  0  0  0  0
   -0.4007   -7.0152    3.6743 H   0  0  0  0  0  0  0  0  0  0  0  0
    1.4655   -8.8746    5.2489 H   0  0  0  0  0  0  0  0  0  0  0  0
    4.1081   -5.3797    5.4532 H   0  0  0  0  0  0  0  0  0  0  0  0
    5.2217   -6.5756    4.8173 H   0  0  0  0  0  0  0  0  0  0  0  0
    3.7249   -7.1075    5.5311 H   0  0  0  0  0  0  0  0  0  0  0  0
  1  2  1  0
  1 29  1  0
  1 30  1  0
  1 31  1  0
  2 26  1  0
  2  3  1  0
  2  4  1  0
  3 32  1  0
  3 33  1  0
  3 34  1  0
  4 26  1  0
  4  5  2  3
  5  6  1  0
  5 35  1  0
  6 27  1  0
  6  7  1  0
  6 36  1  1
  7  8  2  0
  7  9  1  0
  9 27  1  0
  9 10  1  1
  9 11  1  0
 10 37  1  0
 11 12  1  0
 11 20  1  0
 11 38  1  1
 12 13  1  0
 13 14  1  0
 13 39  1  0
 13 40  1  0
 14 19  1  0
 14 15  2  0
 15 16  1  0
 15 41  1  0
 16 17  2  0
 16 42  1  0
 17 18  1  0
 17 43  1  0
 18 19  2  0
 18 44  1  0
 19 45  1  0
 20 22  1  0
 20 21  1  0
 20 46  1  1
 22 21  1  6
 22 23  1  0
 22 27  1  0
 23 24  1  0
 23 25  1  0
 23 47  1  1
 24 48  1  0
 25 26  1  0
 25 49  1  0
 25 50  1  0
 26 51  1  1
 27 28  1  1
 28 52  1  0
 28 53  1  0
 28 54  1  0
M  END
>  <i_m_ct_stereo_status>  (328) 
1

>  <s_m_source_file>  (328) 
/var/tmp/pbs.5076255.sched01/tmparsu8qf0/123n9qi1oz7.sdf

>  <i_m_source_file_index>  (328) 
17

>  <i_lp_mmshare_version>  (328) 
48012

>  <i_f3d_flags>  (328) 
0

>  <s_epik_input>  (328) 
W09IXVtDQEhdMVtDSDJdW0NIXShDMihbQ0gzXSlbQ0gzXSlDXDI9W0NIXS9bQ0BASF0oQzM9TylbQ0BAXTQoW0NIM10pW0NAXTMoW09IXSlbQ0BIXShbQ0BASF0oTzUpW0NAXTE0NSlPW0NIMl1jNltjSF1bY0hdW2NIXVtjSF1bY0hdNg==

>  <s_epik_cmdline>  (328) 
J2VwaWtfcHl0aG9uJywgJy1waHQnLCAnMi4wJywgJy1waCcsICc3LjAnLCAnLXRuJywgJzgnLCAnLW1hJywgJzIwMCcsICctaW1hZScsICc8aW5maWxlLm1hZT4nLCAnLW9tYWUnLCAnPG91dGZpbGUubWFlPic=

>  <r_lp_tautomer_probability>  (328) 
1

>  <r_epik_Ionization_Penalty>  (328) 
1.88022e-07

>  <r_epik_Ionization_Penalty_Charging>  (328) 
0

>  <r_epik_Ionization_Penalty_Neutral>  (328) 
1.88022e-07

>  <r_epik_State_Penalty>  (328) 
-0

>  <r_epik_Charging_Adjusted_Penalty>  (328) 
0

>  <i_epik_Tot_Q>  (328) 
0

>  <i_epik_Tot_abs_Q>  (328) 
0

>  <s_lp_Force_Field>  (328) 
OPLS3e

>  <r_lp_Energy>  (328) 
31.6376

>  <b_lp_Chiralities_Consistent>  (328) 
1

>  <s_lp_Variant>  (328) 
102:0-3

>  <s_i_glide_gridfile>  (328) 
pfpi4k_grid

>  <i_i_glide_lignum>  (328) 
17

>  <i_i_glide_rotatable_bonds>  (328) 
5

>  <r_i_docking_score>  (328) 
-2.92044

>  <r_i_glide_ligand_efficiency>  (328) 
-0.104301

>  <r_i_glide_ligand_efficiency_sa>  (328) 
-0.31672

>  <r_i_glide_ligand_efficiency_ln>  (328) 
-0.674122

>  <r_i_glide_gscore>  (328) 
-2.92044

>  <r_i_glide_lipo>  (328) 
-0.677483

>  <r_i_glide_hbond>  (328) 
-0.0151473

>  <r_i_glide_metal>  (328) 
-0

>  <r_i_glide_rewards>  (328) 
-0.885892

>  <r_i_glide_evdw>  (328) 
-28.2274

>  <r_i_glide_ecoul>  (328) 
-2.19263

>  <r_i_glide_erotb>  (328) 
0.398347

>  <r_i_glide_esite>  (328) 
0

>  <r_i_glide_emodel>  (328) 
-34.335

>  <r_i_glide_energy>  (328) 
-30.42

>  <r_i_glide_einternal>  (328) 
2.79755

>  <r_i_glide_intrahb_reward>  (328) 
-0

>  <i_i_glide_confnum>  (328) 
4

>  <i_i_glide_posenum>  (328) 
12

>  <r_i_glide_eff_state_penalty>  (328) 
0

>  <ligand_id>  (328) 
102

>  <original_smiles>  (328) 
CC1(C)C2=CC3C(=O)C4(O)C(OCc5ccccc5)C5OC5(C(O)CC21)C34C

>  <smiles>  (328) 
[H]OC1([H])C([H])([H])C2([H])C(=C([H])C3([H])C(=O)C4(O[H])C([H])(OC([H])([H])c5c([H])c([H])c([H])c([H])c5[H])C5([H])OC15C34C([H])([H])[H])C2(C([H])([H])[H])C([H])([H])[H]

$$$$
102:2:1
     RDKit          3D

 54 59  0  0  1  0  0  0  0  0999 V2000
   -0.5893   -9.8266    2.4633 C   0  0  0  0  0  0  0  0  0  0  0  0
    0.6631   -9.9734    3.3052 C   0  0  0  0  0  0  0  0  0  0  0  0
    0.9053  -11.4100    3.7255 C   0  0  0  0  0  0  0  0  0  0  0  0
    1.8158   -9.0961    2.9990 C   0  0  0  0  0  0  0  0  0  0  0  0
    2.8344   -8.7897    2.1849 C   0  0  0  0  0  0  0  0  0  0  0  0
    3.8975   -7.7358    2.4762 C   0  0  1  0  0  0  0  0  0  0  0  0
    4.1526   -6.7670    1.3121 C   0  0  0  0  0  0  0  0  0  0  0  0
    4.2726   -6.8972    0.0970 O   0  0  0  0  0  0  0  0  0  0  0  0
    4.2425   -5.5834    2.3070 C   0  0  1  0  0  0  0  0  0  0  0  0
    5.5871   -5.1892    2.4959 O   0  0  0  0  0  0  0  0  0  0  0  0
    3.3617   -4.3623    1.9992 C   0  0  1  0  0  0  0  0  0  0  0  0
    3.1375   -4.0484    0.6343 O   0  0  0  0  0  0  0  0  0  0  0  0
    4.2732   -3.5748   -0.0732 C   0  0  0  0  0  0  0  0  0  0  0  0
    3.8461   -2.8525   -1.3327 C   0  0  0  0  0  0  0  0  0  0  0  0
    2.7580   -3.3329   -2.0844 C   0  0  0  0  0  0  0  0  0  0  0  0
    2.3516   -2.6674   -3.2567 C   0  0  0  0  0  0  0  0  0  0  0  0
    3.0247   -1.5045   -3.6672 C   0  0  0  0  0  0  0  0  0  0  0  0
    4.1116   -1.0177   -2.9150 C   0  0  0  0  0  0  0  0  0  0  0  0
    4.5277   -1.6950   -1.7548 C   0  0  0  0  0  0  0  0  0  0  0  0
    2.0278   -4.6834    2.6225 C   0  0  1  0  0  0  0  0  0  0  0  0
    1.3958   -5.8936    2.2041 O   0  0  0  0  0  0  0  0  0  0  0  0
    2.1129   -5.9412    3.4542 C   0  0  2  0  0  0  0  0  0  0  0  0
    1.2078   -6.2965    4.6470 C   0  0  1  0  0  0  0  0  0  0  0  0
    0.3503   -5.2099    4.9357 O   0  0  0  0  0  0  0  0  0  0  0  0
    0.3417   -7.5439    4.4174 C   0  0  0  0  0  0  0  0  0  0  0  0
    1.1389   -8.8218    4.2744 C   0  0  1  0  0  0  0  0  0  0  0  0
    3.5566   -6.4991    3.3745 C   0  0  1  0  0  0  0  0  0  0  0  0
    4.2323   -6.5057    4.7487 C   0  0  0  0  0  0  0  0  0  0  0  0
   -1.4792   -9.8602    3.0926 H   0  0  0  0  0  0  0  0  0  0  0  0
   -0.6446  -10.6179    1.7130 H   0  0  0  0  0  0  0  0  0  0  0  0
   -0.5820   -8.8744    1.9321 H   0  0  0  0  0  0  0  0  0  0  0  0
    0.0800  -11.7611    4.3420 H   0  0  0  0  0  0  0  0  0  0  0  0
    1.8141  -11.4890    4.3187 H   0  0  0  0  0  0  0  0  0  0  0  0
    0.9946  -12.0677    2.8632 H   0  0  0  0  0  0  0  0  0  0  0  0
    2.9643   -9.3608    1.2802 H   0  0  0  0  0  0  0  0  0  0  0  0
    4.8258   -8.2201    2.7838 H   0  0  0  0  0  0  0  0  0  0  0  0
    6.0872   -5.9811    2.6338 H   0  0  0  0  0  0  0  0  0  0  0  0
    3.7522   -3.4784    2.5049 H   0  0  0  0  0  0  0  0  0  0  0  0
    4.8626   -2.9032    0.5503 H   0  0  0  0  0  0  0  0  0  0  0  0
    4.9184   -4.4074   -0.3494 H   0  0  0  0  0  0  0  0  0  0  0  0
    2.2250   -4.2168   -1.7634 H   0  0  0  0  0  0  0  0  0  0  0  0
    1.5064   -3.0436   -3.8170 H   0  0  0  0  0  0  0  0  0  0  0  0
    2.6906   -0.9777   -4.5488 H   0  0  0  0  0  0  0  0  0  0  0  0
    4.6142   -0.1091   -3.2130 H   0  0  0  0  0  0  0  0  0  0  0  0
    5.3509   -1.3164   -1.1687 H   0  0  0  0  0  0  0  0  0  0  0  0
    1.3654   -3.8593    2.8842 H   0  0  0  0  0  0  0  0  0  0  0  0
    1.8018   -6.4263    5.5492 H   0  0  0  0  0  0  0  0  0  0  0  0
   -0.1632   -5.4411    5.6972 H   0  0  0  0  0  0  0  0  0  0  0  0
   -0.3240   -7.6960    5.2670 H   0  0  0  0  0  0  0  0  0  0  0  0
   -0.3007   -7.4014    3.5488 H   0  0  0  0  0  0  0  0  0  0  0  0
    1.6278   -9.1329    5.1942 H   0  0  0  0  0  0  0  0  0  0  0  0
    4.1456   -5.5422    5.2501 H   0  0  0  0  0  0  0  0  0  0  0  0
    5.2986   -6.7233    4.6599 H   0  0  0  0  0  0  0  0  0  0  0  0
    3.8247   -7.2789    5.4010 H   0  0  0  0  0  0  0  0  0  0  0  0
  1  2  1  0
  1 29  1  0
  1 30  1  0
  1 31  1  0
  2 26  1  0
  2  3  1  0
  2  4  1  0
  3 32  1  0
  3 33  1  0
  3 34  1  0
  4 26  1  0
  4  5  2  3
  5  6  1  0
  5 35  1  0
  6 27  1  0
  6  7  1  0
  6 36  1  1
  7  8  2  0
  7  9  1  0
  9 27  1  0
  9 10  1  1
  9 11  1  0
 10 37  1  0
 11 12  1  0
 11 20  1  0
 11 38  1  1
 12 13  1  0
 13 14  1  0
 13 39  1  0
 13 40  1  0
 14 19  1  0
 14 15  2  0
 15 16  1  0
 15 41  1  0
 16 17  2  0
 16 42  1  0
 17 18  1  0
 17 43  1  0
 18 19  2  0
 18 44  1  0
 19 45  1  0
 20 22  1  0
 20 21  1  0
 20 46  1  1
 22 21  1  6
 22 23  1  0
 22 27  1  0
 23 24  1  0
 23 25  1  0
 23 47  1  1
 24 48  1  0
 25 26  1  0
 25 49  1  0
 25 50  1  0
 26 51  1  1
 27 28  1  1
 28 52  1  0
 28 53  1  0
 28 54  1  0
M  END
>  <i_m_ct_stereo_status>  (329) 
1

>  <s_m_source_file>  (329) 
/var/tmp/pbs.5076255.sched01/tmparsu8qf0/123n9qi1oz7.sdf

>  <i_m_source_file_index>  (329) 
17

>  <i_lp_mmshare_version>  (329) 
48012

>  <i_f3d_flags>  (329) 
0

>  <s_epik_input>  (329) 
W09IXVtDQEhdMVtDSDJdW0NIXShDMihbQ0gzXSlbQ0gzXSlDXDI9W0NIXS9bQ0BASF0oQzM9TylbQ0BAXTQoW0NIM10pW0NAXTMoW09IXSlbQ0BIXShbQ0BASF0oTzUpW0NAXTE0NSlPW0NIMl1jNltjSF1bY0hdW2NIXVtjSF1bY0hdNg==

>  <s_epik_cmdline>  (329) 
J2VwaWtfcHl0aG9uJywgJy1waHQnLCAnMi4wJywgJy1waCcsICc3LjAnLCAnLXRuJywgJzgnLCAnLW1hJywgJzIwMCcsICctaW1hZScsICc8aW5maWxlLm1hZT4nLCAnLW9tYWUnLCAnPG91dGZpbGUubWFlPic=

>  <r_lp_tautomer_probability>  (329) 
1

>  <r_epik_Ionization_Penalty>  (329) 
1.88022e-07

>  <r_epik_Ionization_Penalty_Charging>  (329) 
0

>  <r_epik_Ionization_Penalty_Neutral>  (329) 
1.88022e-07

>  <r_epik_State_Penalty>  (329) 
-0

>  <r_epik_Charging_Adjusted_Penalty>  (329) 
0

>  <i_epik_Tot_Q>  (329) 
0

>  <i_epik_Tot_abs_Q>  (329) 
0

>  <s_lp_Force_Field>  (329) 
OPLS3e

>  <r_lp_Energy>  (329) 
31.6376

>  <b_lp_Chiralities_Consistent>  (329) 
1

>  <s_lp_Variant>  (329) 
102:0-3

>  <s_i_glide_gridfile>  (329) 
pfpi4k_grid

>  <i_i_glide_lignum>  (329) 
17

>  <i_i_glide_rotatable_bonds>  (329) 
5

>  <r_i_docking_score>  (329) 
-2.76952

>  <r_i_glide_ligand_efficiency>  (329) 
-0.0989113

>  <r_i_glide_ligand_efficiency_sa>  (329) 
-0.300353

>  <r_i_glide_ligand_efficiency_ln>  (329) 
-0.639285

>  <r_i_glide_gscore>  (329) 
-2.76952

>  <r_i_glide_lipo>  (329) 
-0.755722

>  <r_i_glide_hbond>  (329) 
-0.00332704

>  <r_i_glide_metal>  (329) 
-0

>  <r_i_glide_rewards>  (329) 
-0.91231

>  <r_i_glide_evdw>  (329) 
-28.5382

>  <r_i_glide_ecoul>  (329) 
-0.463956

>  <r_i_glide_erotb>  (329) 
0.398347

>  <r_i_glide_esite>  (329) 
0

>  <r_i_glide_emodel>  (329) 
-32.2831

>  <r_i_glide_energy>  (329) 
-29.0021

>  <r_i_glide_einternal>  (329) 
3.46515

>  <r_i_glide_intrahb_reward>  (329) 
-0

>  <i_i_glide_confnum>  (329) 
5

>  <i_i_glide_posenum>  (329) 
3

>  <r_i_glide_eff_state_penalty>  (329) 
0

>  <ligand_id>  (329) 
102

>  <original_smiles>  (329) 
CC1(C)C2=CC3C(=O)C4(O)C(OCc5ccccc5)C5OC5(C(O)CC21)C34C

>  <smiles>  (329) 
[H]OC1([H])C([H])([H])C2([H])C(=C([H])C3([H])C(=O)C4(O[H])C([H])(OC([H])([H])c5c([H])c([H])c([H])c([H])c5[H])C5([H])OC15C34C([H])([H])[H])C2(C([H])([H])[H])C([H])([H])[H]

$$$$
102:2:2
     RDKit          3D

 54 59  0  0  1  0  0  0  0  0999 V2000
   -0.4412   -9.8680    2.4877 C   0  0  0  0  0  0  0  0  0  0  0  0
    0.7568   -9.9927    3.4126 C   0  0  0  0  0  0  0  0  0  0  0  0
    0.9598  -11.4135    3.9072 C   0  0  0  0  0  0  0  0  0  0  0  0
    1.9347   -9.1409    3.1381 C   0  0  0  0  0  0  0  0  0  0  0  0
    3.0014   -8.8764    2.3696 C   0  0  0  0  0  0  0  0  0  0  0  0
    4.0558   -7.8194    2.6732 C   0  0  1  0  0  0  0  0  0  0  0  0
    4.3839   -6.9044    1.4815 C   0  0  0  0  0  0  0  0  0  0  0  0
    4.5735   -7.0871    0.2841 O   0  0  0  0  0  0  0  0  0  0  0  0
    4.4310   -5.6781    2.4296 C   0  0  1  0  0  0  0  0  0  0  0  0
    5.7695   -5.2895    2.6765 O   0  0  0  0  0  0  0  0  0  0  0  0
    3.5803   -4.4636    2.0195 C   0  0  1  0  0  0  0  0  0  0  0  0
    3.4380   -4.2012    0.6306 O   0  0  0  0  0  0  0  0  0  0  0  0
    4.6119   -3.7388   -0.0186 C   0  0  0  0  0  0  0  0  0  0  0  0
    4.2685   -3.1586   -1.3733 C   0  0  0  0  0  0  0  0  0  0  0  0
    4.6428   -3.8204   -2.5569 C   0  0  0  0  0  0  0  0  0  0  0  0
    4.2799   -3.2981   -3.8122 C   0  0  0  0  0  0  0  0  0  0  0  0
    3.5574   -2.0908   -3.8857 C   0  0  0  0  0  0  0  0  0  0  0  0
    3.1917   -1.4206   -2.7053 C   0  0  0  0  0  0  0  0  0  0  0  0
    3.5390   -1.9581   -1.4528 C   0  0  0  0  0  0  0  0  0  0  0  0
    2.2121   -4.7475    2.5847 C   0  0  1  0  0  0  0  0  0  0  0  0
    1.5926   -5.9715    2.1879 O   0  0  0  0  0  0  0  0  0  0  0  0
    2.2409   -5.9692    3.4763 C   0  0  2  0  0  0  0  0  0  0  0  0
    1.2680   -6.2674    4.6309 C   0  0  1  0  0  0  0  0  0  0  0  0
    0.4089   -5.1610    4.8305 O   0  0  0  0  0  0  0  0  0  0  0  0
    0.4008   -7.5158    4.4066 C   0  0  0  0  0  0  0  0  0  0  0  0
    1.1899   -8.8062    4.3602 C   0  0  1  0  0  0  0  0  0  0  0  0
    3.6796   -6.5419    3.4979 C   0  0  1  0  0  0  0  0  0  0  0  0
    4.2789   -6.4961    4.9067 C   0  0  0  0  0  0  0  0  0  0  0  0
   -1.3655   -9.8806    3.0671 H   0  0  0  0  0  0  0  0  0  0  0  0
   -0.4624  -10.6858    1.7669 H   0  0  0  0  0  0  0  0  0  0  0  0
   -0.3984   -8.9346    1.9264 H   0  0  0  0  0  0  0  0  0  0  0  0
    0.0987  -11.7315    4.4927 H   0  0  0  0  0  0  0  0  0  0  0  0
    1.8321  -11.4735    4.5577 H   0  0  0  0  0  0  0  0  0  0  0  0
    1.0909  -12.1078    3.0779 H   0  0  0  0  0  0  0  0  0  0  0  0
    3.1738   -9.4895    1.4994 H   0  0  0  0  0  0  0  0  0  0  0  0
    4.9598   -8.2971    3.0523 H   0  0  0  0  0  0  0  0  0  0  0  0
    6.2520   -6.0786    2.8707 H   0  0  0  0  0  0  0  0  0  0  0  0
    3.9523   -3.5640    2.5110 H   0  0  0  0  0  0  0  0  0  0  0  0
    5.0960   -2.9619    0.5725 H   0  0  0  0  0  0  0  0  0  0  0  0
    5.3266   -4.5544   -0.1249 H   0  0  0  0  0  0  0  0  0  0  0  0
    5.1693   -4.7591   -2.4988 H   0  0  0  0  0  0  0  0  0  0  0  0
    4.5513   -3.8382   -4.7082 H   0  0  0  0  0  0  0  0  0  0  0  0
    3.2588   -1.6776   -4.8360 H   0  0  0  0  0  0  0  0  0  0  0  0
    2.6146   -0.5069   -2.7486 H   0  0  0  0  0  0  0  0  0  0  0  0
    3.2152   -1.4610   -0.5492 H   0  0  0  0  0  0  0  0  0  0  0  0
    1.5450   -3.9089    2.7793 H   0  0  0  0  0  0  0  0  0  0  0  0
    1.8099   -6.3639    5.5693 H   0  0  0  0  0  0  0  0  0  0  0  0
   -0.1383   -5.3488    5.5782 H   0  0  0  0  0  0  0  0  0  0  0  0
   -0.3120   -7.6254    5.2241 H   0  0  0  0  0  0  0  0  0  0  0  0
   -0.1919   -7.4046    3.4991 H   0  0  0  0  0  0  0  0  0  0  0  0
    1.6243   -9.0824    5.3181 H   0  0  0  0  0  0  0  0  0  0  0  0
    4.1750   -5.5118    5.3629 H   0  0  0  0  0  0  0  0  0  0  0  0
    5.3464   -6.7267    4.8880 H   0  0  0  0  0  0  0  0  0  0  0  0
    3.8278   -7.2371    5.5682 H   0  0  0  0  0  0  0  0  0  0  0  0
  1  2  1  0
  1 29  1  0
  1 30  1  0
  1 31  1  0
  2 26  1  0
  2  3  1  0
  2  4  1  0
  3 32  1  0
  3 33  1  0
  3 34  1  0
  4 26  1  0
  4  5  2  3
  5  6  1  0
  5 35  1  0
  6 27  1  0
  6  7  1  0
  6 36  1  1
  7  8  2  0
  7  9  1  0
  9 27  1  0
  9 10  1  1
  9 11  1  0
 10 37  1  0
 11 12  1  0
 11 20  1  0
 11 38  1  1
 12 13  1  0
 13 14  1  0
 13 39  1  0
 13 40  1  0
 14 19  1  0
 14 15  2  0
 15 16  1  0
 15 41  1  0
 16 17  2  0
 16 42  1  0
 17 18  1  0
 17 43  1  0
 18 19  2  0
 18 44  1  0
 19 45  1  0
 20 22  1  0
 20 21  1  0
 20 46  1  1
 22 21  1  6
 22 23  1  0
 22 27  1  0
 23 24  1  0
 23 25  1  0
 23 47  1  1
 24 48  1  0
 25 26  1  0
 25 49  1  0
 25 50  1  0
 26 51  1  1
 27 28  1  1
 28 52  1  0
 28 53  1  0
 28 54  1  0
M  END
>  <i_m_ct_stereo_status>  (330) 
1

>  <s_m_source_file>  (330) 
/var/tmp/pbs.5076255.sched01/tmparsu8qf0/123n9qi1oz7.sdf

>  <i_m_source_file_index>  (330) 
17

>  <i_lp_mmshare_version>  (330) 
48012

>  <i_f3d_flags>  (330) 
0

>  <s_epik_input>  (330) 
W09IXVtDQEhdMVtDSDJdW0NIXShDMihbQ0gzXSlbQ0gzXSlDXDI9W0NIXS9bQ0BASF0oQzM9TylbQ0BAXTQoW0NIM10pW0NAXTMoW09IXSlbQ0BIXShbQ0BASF0oTzUpW0NAXTE0NSlPW0NIMl1jNltjSF1bY0hdW2NIXVtjSF1bY0hdNg==

>  <s_epik_cmdline>  (330) 
J2VwaWtfcHl0aG9uJywgJy1waHQnLCAnMi4wJywgJy1waCcsICc3LjAnLCAnLXRuJywgJzgnLCAnLW1hJywgJzIwMCcsICctaW1hZScsICc8aW5maWxlLm1hZT4nLCAnLW9tYWUnLCAnPG91dGZpbGUubWFlPic=

>  <r_lp_tautomer_probability>  (330) 
1

>  <r_epik_Ionization_Penalty>  (330) 
1.88022e-07

>  <r_epik_Ionization_Penalty_Charging>  (330) 
0

>  <r_epik_Ionization_Penalty_Neutral>  (330) 
1.88022e-07

>  <r_epik_State_Penalty>  (330) 
-0

>  <r_epik_Charging_Adjusted_Penalty>  (330) 
0

>  <i_epik_Tot_Q>  (330) 
0

>  <i_epik_Tot_abs_Q>  (330) 
0

>  <s_lp_Force_Field>  (330) 
OPLS3e

>  <r_lp_Energy>  (330) 
31.6376

>  <b_lp_Chiralities_Consistent>  (330) 
1

>  <s_lp_Variant>  (330) 
102:0-3

>  <s_i_glide_gridfile>  (330) 
pfpi4k_grid

>  <i_i_glide_lignum>  (330) 
17

>  <i_i_glide_rotatable_bonds>  (330) 
5

>  <r_i_docking_score>  (330) 
-2.34023

>  <r_i_glide_ligand_efficiency>  (330) 
-0.0835796

>  <r_i_glide_ligand_efficiency_sa>  (330) 
-0.253797

>  <r_i_glide_ligand_efficiency_ln>  (330) 
-0.540194

>  <r_i_glide_gscore>  (330) 
-2.34023

>  <r_i_glide_lipo>  (330) 
-0.479558

>  <r_i_glide_hbond>  (330) 
0

>  <r_i_glide_metal>  (330) 
-0

>  <r_i_glide_rewards>  (330) 
-0.899977

>  <r_i_glide_evdw>  (330) 
-27.8664

>  <r_i_glide_ecoul>  (330) 
0.228517

>  <r_i_glide_erotb>  (330) 
0.398347

>  <r_i_glide_esite>  (330) 
0

>  <r_i_glide_emodel>  (330) 
-30.2883

>  <r_i_glide_energy>  (330) 
-27.6378

>  <r_i_glide_einternal>  (330) 
3.14673

>  <r_i_glide_intrahb_reward>  (330) 
-0

>  <i_i_glide_confnum>  (330) 
5

>  <i_i_glide_posenum>  (330) 
23

>  <r_i_glide_eff_state_penalty>  (330) 
0

>  <ligand_id>  (330) 
102

>  <original_smiles>  (330) 
CC1(C)C2=CC3C(=O)C4(O)C(OCc5ccccc5)C5OC5(C(O)CC21)C34C

>  <smiles>  (330) 
[H]OC1([H])C([H])([H])C2([H])C(=C([H])C3([H])C(=O)C4(O[H])C([H])(OC([H])([H])c5c([H])c([H])c([H])c([H])c5[H])C5([H])OC15C34C([H])([H])[H])C2(C([H])([H])[H])C([H])([H])[H]

$$$$
102:3:0
     RDKit          3D

 54 59  0  0  1  0  0  0  0  0999 V2000
   -0.7836   -9.4647    2.4707 C   0  0  0  0  0  0  0  0  0  0  0  0
    0.4844   -9.7153    3.2877 C   0  0  0  0  0  0  0  0  0  0  0  0
    0.6542  -11.1674    3.7093 C   0  0  0  0  0  0  0  0  0  0  0  0
    1.6706   -8.8992    3.0040 C   0  0  0  0  0  0  0  0  0  0  0  0
    2.7513   -8.5667    2.2312 C   0  0  0  0  0  0  0  0  0  0  0  0
    3.8736   -7.5314    2.5353 C   0  0  1  0  0  0  0  0  0  0  0  0
    4.1449   -6.4960    1.4184 C   0  0  0  0  0  0  0  0  0  0  0  0
    4.2283   -6.6061    0.2000 O   0  0  0  0  0  0  0  0  0  0  0  0
    4.2572   -5.3627    2.4849 C   0  0  1  0  0  0  0  0  0  0  0  0
    5.6223   -5.0603    2.7110 O   0  0  0  0  0  0  0  0  0  0  0  0
    3.4071   -4.1098    2.2434 C   0  0  1  0  0  0  0  0  0  0  0  0
    3.2038   -3.7552    0.8947 O   0  0  0  0  0  0  0  0  0  0  0  0
    4.3427   -3.2171    0.2472 C   0  0  0  0  0  0  0  0  0  0  0  0
    3.9450   -2.6062   -1.0772 C   0  0  0  0  0  0  0  0  0  0  0  0
    2.9766   -3.2379   -1.8764 C   0  0  0  0  0  0  0  0  0  0  0  0
    2.5989   -2.6732   -3.1074 C   0  0  0  0  0  0  0  0  0  0  0  0
    3.1882   -1.4718   -3.5311 C   0  0  0  0  0  0  0  0  0  0  0  0
    4.1536   -0.8366   -2.7342 C   0  0  0  0  0  0  0  0  0  0  0  0
    4.5367   -1.4044   -1.5064 C   0  0  0  0  0  0  0  0  0  0  0  0
    2.0480   -4.4014    2.8558 C   0  0  1  0  0  0  0  0  0  0  0  0
    1.3918   -5.5731    2.3572 O   0  0  0  0  0  0  0  0  0  0  0  0
    2.0780   -5.6952    3.6197 C   0  0  2  0  0  0  0  0  0  0  0  0
    1.1210   -6.0788    4.7836 C   0  0  1  0  0  0  0  0  0  0  0  0
    0.2526   -4.9963    5.0895 O   0  0  0  0  0  0  0  0  0  0  0  0
    0.2287   -7.3071    4.5029 C   0  0  0  0  0  0  0  0  0  0  0  0
    0.9949   -8.6094    4.2865 C   0  0  1  0  0  0  0  0  0  0  0  0
    3.5363   -6.2772    3.5177 C   0  0  1  0  0  0  0  0  0  0  0  0
    4.1729   -6.4026    4.9018 C   0  0  0  0  0  0  0  0  0  0  0  0
   -1.6822   -9.5032    3.0915 H   0  0  0  0  0  0  0  0  0  0  0  0
   -0.8789  -10.2118    1.6878 H   0  0  0  0  0  0  0  0  0  0  0  0
   -0.7576   -8.4904    1.9789 H   0  0  0  0  0  0  0  0  0  0  0  0
   -0.1845  -11.5045    4.3207 H   0  0  0  0  0  0  0  0  0  0  0  0
    1.5620  -11.3040    4.3002 H   0  0  0  0  0  0  0  0  0  0  0  0
    0.7221  -11.8046    2.8339 H   0  0  0  0  0  0  0  0  0  0  0  0
    2.7464   -7.9552    2.9304 H   0  0  0  0  0  0  0  0  0  0  0  0
    4.7915   -8.0610    2.8371 H   0  0  0  0  0  0  0  0  0  0  0  0
    6.0884   -5.8764    2.8492 H   0  0  0  0  0  0  0  0  0  0  0  0
    3.8133   -3.2601    2.7801 H   0  0  0  0  0  0  0  0  0  0  0  0
    4.8046   -2.4502    0.8708 H   0  0  0  0  0  0  0  0  0  0  0  0
    5.0950   -3.9897    0.0740 H   0  0  0  0  0  0  0  0  0  0  0  0
    2.5170   -4.1599   -1.5484 H   0  0  0  0  0  0  0  0  0  0  0  0
    1.8498   -3.1589   -3.7120 H   0  0  0  0  0  0  0  0  0  0  0  0
    2.8868   -1.0325   -4.4680 H   0  0  0  0  0  0  0  0  0  0  0  0
    4.5951    0.0917   -3.0553 H   0  0  0  0  0  0  0  0  0  0  0  0
    5.2703   -0.9109   -0.8909 H   0  0  0  0  0  0  0  0  0  0  0  0
    1.3781   -3.5776    3.1252 H   0  0  0  0  0  0  0  0  0  0  0  0
    1.6812   -6.2365    5.7063 H   0  0  0  0  0  0  0  0  0  0  0  0
   -0.2396   -5.2023    5.8709 H   0  0  0  0  0  0  0  0  0  0  0  0
   -0.4573   -7.4552    5.3468 H   0  0  0  0  0  0  0  0  0  0  0  0
   -0.4246   -7.0903    3.6594 H   0  0  0  0  0  0  0  0  0  0  0  0
    1.4588   -8.9617    5.2026 H   0  0  0  0  0  0  0  0  0  0  0  0
    4.1097   -5.4709    5.4639 H   0  0  0  0  0  0  0  0  0  0  0  0
    5.2276   -6.6715    4.8316 H   0  0  0  0  0  0  0  0  0  0  0  0
    3.7029   -7.1850    5.4880 H   0  0  0  0  0  0  0  0  0  0  0  0
  1  2  1  0
  1 29  1  0
  1 30  1  0
  1 31  1  0
  2 26  1  0
  2  3  1  0
  2  4  1  0
  3 32  1  0
  3 33  1  0
  3 34  1  0
  4 26  1  0
  4  5  2  3
  5  6  1  0
  5 35  1  0
  6 27  1  0
  6  7  1  0
  6 36  1  1
  7  8  2  0
  7  9  1  0
  9 27  1  0
  9 10  1  1
  9 11  1  0
 10 37  1  0
 11 12  1  0
 11 20  1  0
 11 38  1  1
 12 13  1  0
 13 14  1  0
 13 39  1  0
 13 40  1  0
 14 19  1  0
 14 15  2  0
 15 16  1  0
 15 41  1  0
 16 17  2  0
 16 42  1  0
 17 18  1  0
 17 43  1  0
 18 19  2  0
 18 44  1  0
 19 45  1  0
 20 22  1  0
 20 21  1  0
 20 46  1  1
 22 21  1  6
 22 23  1  0
 22 27  1  0
 23 24  1  0
 23 25  1  0
 23 47  1  1
 24 48  1  0
 25 26  1  0
 25 49  1  0
 25 50  1  0
 26 51  1  1
 27 28  1  1
 28 52  1  0
 28 53  1  0
 28 54  1  0
M  END
>  <i_m_ct_stereo_status>  (331) 
1

>  <s_m_source_file>  (331) 
/var/tmp/pbs.5076255.sched01/tmparsu8qf0/123n9qi1oz7.sdf

>  <i_m_source_file_index>  (331) 
18

>  <i_lp_mmshare_version>  (331) 
48012

>  <i_f3d_flags>  (331) 
0

>  <s_epik_input>  (331) 
W09IXVtDQEhdMVtDSDJdW0NIXShDMihbQ0gzXSlbQ0gzXSlDXDI9W0NIXS9bQ0BASF0oQzM9TylbQ0BAXTQoW0NIM10pW0NAXTMoW09IXSlbQ0BIXShbQ0BASF0oTzUpW0NAXTE0NSlPW0NIMl1jNltjSF1bY0hdW2NIXVtjSF1bY0hdNg==

>  <s_epik_cmdline>  (331) 
J2VwaWtfcHl0aG9uJywgJy1waHQnLCAnMi4wJywgJy1waCcsICc3LjAnLCAnLXRuJywgJzgnLCAnLW1hJywgJzIwMCcsICctaW1hZScsICc8aW5maWxlLm1hZT4nLCAnLW9tYWUnLCAnPG91dGZpbGUubWFlPic=

>  <r_lp_tautomer_probability>  (331) 
1

>  <r_epik_Ionization_Penalty>  (331) 
1.88022e-07

>  <r_epik_Ionization_Penalty_Charging>  (331) 
0

>  <r_epik_Ionization_Penalty_Neutral>  (331) 
1.88022e-07

>  <r_epik_State_Penalty>  (331) 
-0

>  <r_epik_Charging_Adjusted_Penalty>  (331) 
0

>  <i_epik_Tot_Q>  (331) 
0

>  <i_epik_Tot_abs_Q>  (331) 
0

>  <s_lp_Force_Field>  (331) 
OPLS3e

>  <r_lp_Energy>  (331) 
31.0748

>  <b_lp_Chiralities_Consistent>  (331) 
1

>  <s_lp_Variant>  (331) 
102:0-4

>  <s_i_glide_gridfile>  (331) 
pfpi4k_grid

>  <i_i_glide_lignum>  (331) 
18

>  <i_i_glide_rotatable_bonds>  (331) 
5

>  <r_i_docking_score>  (331) 
-0.336292

>  <r_i_glide_ligand_efficiency>  (331) 
-0.0120104

>  <r_i_glide_ligand_efficiency_sa>  (331) 
-0.0364708

>  <r_i_glide_ligand_efficiency_ln>  (331) 
-0.0776261

>  <r_i_glide_gscore>  (331) 
-0.336292

>  <r_i_glide_lipo>  (331) 
-0.628524

>  <r_i_glide_hbond>  (331) 
-0.0128278

>  <r_i_glide_metal>  (331) 
-0

>  <r_i_glide_rewards>  (331) 
-0.89256

>  <r_i_glide_evdw>  (331) 
-28.5655

>  <r_i_glide_ecoul>  (331) 
0.187017

>  <r_i_glide_erotb>  (331) 
0.398347

>  <r_i_glide_esite>  (331) 
0

>  <r_i_glide_emodel>  (331) 
-19.9838

>  <r_i_glide_energy>  (331) 
-28.3784

>  <r_i_glide_einternal>  (331) 
3.01876

>  <r_i_glide_intrahb_reward>  (331) 
-0

>  <i_i_glide_confnum>  (331) 
5

>  <i_i_glide_posenum>  (331) 
11

>  <r_i_glide_eff_state_penalty>  (331) 
0

>  <ligand_id>  (331) 
102

>  <original_smiles>  (331) 
CC1(C)C2=CC3C(=O)C4(O)C(OCc5ccccc5)C5OC5(C(O)CC21)C34C

>  <smiles>  (331) 
[H]OC1([H])C([H])([H])C2([H])C(=C([H])C3([H])C(=O)C4(O[H])C([H])(OC([H])([H])c5c([H])c([H])c([H])c([H])c5[H])C5([H])OC15C34C([H])([H])[H])C2(C([H])([H])[H])C([H])([H])[H]

$$$$
102:3:1
     RDKit          3D

 54 59  0  0  1  0  0  0  0  0999 V2000
   -0.6079   -9.7813    2.4785 C   0  0  0  0  0  0  0  0  0  0  0  0
    0.6620   -9.9486    3.3218 C   0  0  0  0  0  0  0  0  0  0  0  0
    0.9011  -11.3974    3.7409 C   0  0  0  0  0  0  0  0  0  0  0  0
    1.8055   -9.0997    3.0083 C   0  0  0  0  0  0  0  0  0  0  0  0
    2.9045   -8.7130    2.2525 C   0  0  0  0  0  0  0  0  0  0  0  0
    3.9524   -7.6230    2.5585 C   0  0  1  0  0  0  0  0  0  0  0  0
    4.1720   -6.5821    1.4297 C   0  0  0  0  0  0  0  0  0  0  0  0
    4.2696   -6.6595    0.2397 O   0  0  0  0  0  0  0  0  0  0  0  0
    4.2276   -5.4148    2.5098 C   0  0  1  0  0  0  0  0  0  0  0  0
    5.5636   -5.0391    2.7422 O   0  0  0  0  0  0  0  0  0  0  0  0
    3.2962   -4.2092    2.2509 C   0  0  1  0  0  0  0  0  0  0  0  0
    3.0941   -3.8782    0.8955 O   0  0  0  0  0  0  0  0  0  0  0  0
    4.2288   -3.3399    0.2429 C   0  0  0  0  0  0  0  0  0  0  0  0
    3.8198   -2.7226   -1.0714 C   0  0  0  0  0  0  0  0  0  0  0  0
    4.4247   -1.5297   -1.5141 C   0  0  0  0  0  0  0  0  0  0  0  0
    4.0212   -0.9534   -2.7373 C   0  0  0  0  0  0  0  0  0  0  0  0
    3.0255   -1.5721   -3.5151 C   0  0  0  0  0  0  0  0  0  0  0  0
    2.4267   -2.7665   -3.0777 C   0  0  0  0  0  0  0  0  0  0  0  0
    2.8214   -3.3411   -1.8500 C   0  0  0  0  0  0  0  0  0  0  0  0
    1.9526   -4.5733    2.8424 C   0  0  1  0  0  0  0  0  0  0  0  0
    1.3541   -5.7812    2.3647 O   0  0  0  0  0  0  0  0  0  0  0  0
    2.0550   -5.8537    3.6265 C   0  0  2  0  0  0  0  0  0  0  0  0
    1.0995   -6.2845    4.7823 C   0  0  1  0  0  0  0  0  0  0  0  0
    0.1762   -5.2424    5.0771 O   0  0  0  0  0  0  0  0  0  0  0  0
    0.2661   -7.5515    4.5076 C   0  0  0  0  0  0  0  0  0  0  0  0
    1.1103   -8.8201    4.2902 C   0  0  1  0  0  0  0  0  0  0  0  0
    3.5480   -6.3630    3.5333 C   0  0  1  0  0  0  0  0  0  0  0  0
    4.1627   -6.4412    4.9374 C   0  0  0  0  0  0  0  0  0  0  0  0
   -1.5070   -9.8592    3.0875 H   0  0  0  0  0  0  0  0  0  0  0  0
   -0.6521  -10.5353    1.6964 H   0  0  0  0  0  0  0  0  0  0  0  0
   -0.6252   -8.8074    1.9811 H   0  0  0  0  0  0  0  0  0  0  0  0
    0.0797  -11.7714    4.3478 H   0  0  0  0  0  0  0  0  0  0  0  0
    1.8109  -11.4799    4.3395 H   0  0  0  0  0  0  0  0  0  0  0  0
    1.0128  -12.0359    2.8698 H   0  0  0  0  0  0  0  0  0  0  0  0
    2.7695   -8.0950    2.9915 H   0  0  0  0  0  0  0  0  0  0  0  0
    4.8904   -8.0800    2.8840 H   0  0  0  0  0  0  0  0  0  0  0  0
    5.5548   -4.3742    3.4167 H   0  0  0  0  0  0  0  0  0  0  0  0
    3.6611   -3.3331    2.7889 H   0  0  0  0  0  0  0  0  0  0  0  0
    4.7004   -2.5782    0.8646 H   0  0  0  0  0  0  0  0  0  0  0  0
    4.9782   -4.1109    0.0551 H   0  0  0  0  0  0  0  0  0  0  0  0
    5.1794   -1.0477   -0.9176 H   0  0  0  0  0  0  0  0  0  0  0  0
    4.4702   -0.0328   -3.0674 H   0  0  0  0  0  0  0  0  0  0  0  0
    2.7079   -1.1261   -4.4441 H   0  0  0  0  0  0  0  0  0  0  0  0
    1.6573   -3.2387   -3.6647 H   0  0  0  0  0  0  0  0  0  0  0  0
    2.3551   -4.2496   -1.5177 H   0  0  0  0  0  0  0  0  0  0  0  0
    1.2434   -3.7875    3.1100 H   0  0  0  0  0  0  0  0  0  0  0  0
    1.6539   -6.4079    5.7091 H   0  0  0  0  0  0  0  0  0  0  0  0
   -0.3221   -5.4753    5.8440 H   0  0  0  0  0  0  0  0  0  0  0  0
   -0.4162   -7.7366    5.3419 H   0  0  0  0  0  0  0  0  0  0  0  0
   -0.3827   -7.3838    3.6509 H   0  0  0  0  0  0  0  0  0  0  0  0
    1.5768   -9.1415    5.2351 H   0  0  0  0  0  0  0  0  0  0  0  0
    4.0428   -5.5139    5.4950 H   0  0  0  0  0  0  0  0  0  0  0  0
    5.2239   -6.6631    4.8709 H   0  0  0  0  0  0  0  0  0  0  0  0
    3.7222   -7.2548    5.5223 H   0  0  0  0  0  0  0  0  0  0  0  0
  1  2  1  0
  1 29  1  0
  1 30  1  0
  1 31  1  0
  2 26  1  0
  2  3  1  0
  2  4  1  0
  3 32  1  0
  3 33  1  0
  3 34  1  0
  4 26  1  0
  4  5  2  3
  5  6  1  0
  5 35  1  0
  6 27  1  0
  6  7  1  0
  6 36  1  1
  7  8  2  0
  7  9  1  0
  9 27  1  0
  9 10  1  1
  9 11  1  0
 10 37  1  0
 11 12  1  0
 11 20  1  0
 11 38  1  1
 12 13  1  0
 13 14  1  0
 13 39  1  0
 13 40  1  0
 14 19  1  0
 14 15  2  0
 15 16  1  0
 15 41  1  0
 16 17  2  0
 16 42  1  0
 17 18  1  0
 17 43  1  0
 18 19  2  0
 18 44  1  0
 19 45  1  0
 20 22  1  0
 20 21  1  0
 20 46  1  1
 22 21  1  6
 22 23  1  0
 22 27  1  0
 23 24  1  0
 23 25  1  0
 23 47  1  1
 24 48  1  0
 25 26  1  0
 25 49  1  0
 25 50  1  0
 26 51  1  1
 27 28  1  1
 28 52  1  0
 28 53  1  0
 28 54  1  0
M  END
>  <i_m_ct_stereo_status>  (332) 
1

>  <s_m_source_file>  (332) 
/var/tmp/pbs.5076255.sched01/tmparsu8qf0/123n9qi1oz7.sdf

>  <i_m_source_file_index>  (332) 
18

>  <i_lp_mmshare_version>  (332) 
48012

>  <i_f3d_flags>  (332) 
0

>  <s_epik_input>  (332) 
W09IXVtDQEhdMVtDSDJdW0NIXShDMihbQ0gzXSlbQ0gzXSlDXDI9W0NIXS9bQ0BASF0oQzM9TylbQ0BAXTQoW0NIM10pW0NAXTMoW09IXSlbQ0BIXShbQ0BASF0oTzUpW0NAXTE0NSlPW0NIMl1jNltjSF1bY0hdW2NIXVtjSF1bY0hdNg==

>  <s_epik_cmdline>  (332) 
J2VwaWtfcHl0aG9uJywgJy1waHQnLCAnMi4wJywgJy1waCcsICc3LjAnLCAnLXRuJywgJzgnLCAnLW1hJywgJzIwMCcsICctaW1hZScsICc8aW5maWxlLm1hZT4nLCAnLW9tYWUnLCAnPG91dGZpbGUubWFlPic=

>  <r_lp_tautomer_probability>  (332) 
1

>  <r_epik_Ionization_Penalty>  (332) 
1.88022e-07

>  <r_epik_Ionization_Penalty_Charging>  (332) 
0

>  <r_epik_Ionization_Penalty_Neutral>  (332) 
1.88022e-07

>  <r_epik_State_Penalty>  (332) 
-0

>  <r_epik_Charging_Adjusted_Penalty>  (332) 
0

>  <i_epik_Tot_Q>  (332) 
0

>  <i_epik_Tot_abs_Q>  (332) 
0

>  <s_lp_Force_Field>  (332) 
OPLS3e

>  <r_lp_Energy>  (332) 
31.0748

>  <b_lp_Chiralities_Consistent>  (332) 
1

>  <s_lp_Variant>  (332) 
102:0-4

>  <s_i_glide_gridfile>  (332) 
pfpi4k_grid

>  <i_i_glide_lignum>  (332) 
18

>  <i_i_glide_rotatable_bonds>  (332) 
5

>  <r_i_docking_score>  (332) 
0.274845

>  <r_i_glide_ligand_efficiency>  (332) 
0.00981588

>  <r_i_glide_ligand_efficiency_sa>  (332) 
0.0298068

>  <r_i_glide_ligand_efficiency_ln>  (332) 
0.0634422

>  <r_i_glide_gscore>  (332) 
0.274845

>  <r_i_glide_lipo>  (332) 
-0.654457

>  <r_i_glide_hbond>  (332) 
0

>  <r_i_glide_metal>  (332) 
-0

>  <r_i_glide_rewards>  (332) 
-0.894206

>  <r_i_glide_evdw>  (332) 
-28.2919

>  <r_i_glide_ecoul>  (332) 
-0.17041

>  <r_i_glide_erotb>  (332) 
0.398347

>  <r_i_glide_esite>  (332) 
0

>  <r_i_glide_emodel>  (332) 
-18.6552

>  <r_i_glide_energy>  (332) 
-28.4623

>  <r_i_glide_einternal>  (332) 
0.772072

>  <r_i_glide_intrahb_reward>  (332) 
-0

>  <i_i_glide_confnum>  (332) 
4

>  <i_i_glide_posenum>  (332) 
26

>  <r_i_glide_eff_state_penalty>  (332) 
0

>  <ligand_id>  (332) 
102

>  <original_smiles>  (332) 
CC1(C)C2=CC3C(=O)C4(O)C(OCc5ccccc5)C5OC5(C(O)CC21)C34C

>  <smiles>  (332) 
[H]OC1([H])C([H])([H])C2([H])C(=C([H])C3([H])C(=O)C4(O[H])C([H])(OC([H])([H])c5c([H])c([H])c([H])c([H])c5[H])C5([H])OC15C34C([H])([H])[H])C2(C([H])([H])[H])C([H])([H])[H]

$$$$
102:3:2
     RDKit          3D

 54 59  0  0  1  0  0  0  0  0999 V2000
    2.0616    0.5257    3.6147 C   0  0  0  0  0  0  0  0  0  0  0  0
    3.5637    0.2460    3.6665 C   0  0  0  0  0  0  0  0  0  0  0  0
    4.3146    1.1632    4.6183 C   0  0  0  0  0  0  0  0  0  0  0  0
    3.9939   -1.1798    3.5642 C   0  0  0  0  0  0  0  0  0  0  0  0
    4.1678   -2.4363    4.0547 C   0  0  0  0  0  0  0  0  0  0  0  0
    4.9025   -3.6315    3.3395 C   0  0  1  0  0  0  0  0  0  0  0  0
    4.1019   -4.9105    3.2386 C   0  0  0  0  0  0  0  0  0  0  0  0
    3.3538   -5.5095    4.0214 O   0  0  0  0  0  0  0  0  0  0  0  0
    4.6142   -5.1645    1.7650 C   0  0  1  0  0  0  0  0  0  0  0  0
    5.6480   -6.1244    1.7632 O   0  0  0  0  0  0  0  0  0  0  0  0
    3.5429   -5.4363    0.6859 C   0  0  1  0  0  0  0  0  0  0  0  0
    2.4180   -6.1538    1.1346 O   0  0  0  0  0  0  0  0  0  0  0  0
    2.6887   -7.4544    1.6323 C   0  0  0  0  0  0  0  0  0  0  0  0
    1.4100   -8.1178    2.0781 C   0  0  0  0  0  0  0  0  0  0  0  0
    0.2036   -7.3909    2.0802 C   0  0  0  0  0  0  0  0  0  0  0  0
   -0.9951   -8.0103    2.4819 C   0  0  0  0  0  0  0  0  0  0  0  0
   -0.9792   -9.3548    2.8770 C   0  0  0  0  0  0  0  0  0  0  0  0
    0.2240  -10.0849    2.8847 C   0  0  0  0  0  0  0  0  0  0  0  0
    1.4249   -9.4671    2.4837 C   0  0  0  0  0  0  0  0  0  0  0  0
    3.0608   -4.0790    0.2115 C   0  0  1  0  0  0  0  0  0  0  0  0
    2.5683   -3.1983    1.2213 O   0  0  0  0  0  0  0  0  0  0  0  0
    3.9276   -2.9916    0.7891 C   0  0  2  0  0  0  0  0  0  0  0  0
    4.1089   -1.5704    0.1759 C   0  0  1  0  0  0  0  0  0  0  0  0
    3.4250   -1.4748   -1.0629 O   0  0  0  0  0  0  0  0  0  0  0  0
    3.6025   -0.4020    1.0453 C   0  0  0  0  0  0  0  0  0  0  0  0
    4.3187   -0.2745    2.3902 C   0  0  1  0  0  0  0  0  0  0  0  0
    5.0247   -3.6749    1.7001 C   0  0  1  0  0  0  0  0  0  0  0  0
    6.4238   -3.3368    1.1667 C   0  0  0  0  0  0  0  0  0  0  0  0
    1.8516    1.4371    3.0523 H   0  0  0  0  0  0  0  0  0  0  0  0
    1.6527    0.6382    4.6170 H   0  0  0  0  0  0  0  0  0  0  0  0
    1.5126   -0.2891    3.1364 H   0  0  0  0  0  0  0  0  0  0  0  0
    4.2103    2.2044    4.3109 H   0  0  0  0  0  0  0  0  0  0  0  0
    5.3805    0.9266    4.6338 H   0  0  0  0  0  0  0  0  0  0  0  0
    3.9330    1.0613    5.6327 H   0  0  0  0  0  0  0  0  0  0  0  0
    4.4665   -2.4294    3.0997 H   0  0  0  0  0  0  0  0  0  0  0  0
    5.8745   -3.7861    3.8083 H   0  0  0  0  0  0  0  0  0  0  0  0
    5.9399   -6.2266    0.8694 H   0  0  0  0  0  0  0  0  0  0  0  0
    3.9819   -5.9512   -0.1698 H   0  0  0  0  0  0  0  0  0  0  0  0
    3.1740   -8.0666    0.8816 H   0  0  0  0  0  0  0  0  0  0  0  0
    3.3685   -7.4336    2.4808 H   0  0  0  0  0  0  0  0  0  0  0  0
    0.1820   -6.3578    1.7733 H   0  0  0  0  0  0  0  0  0  0  0  0
   -1.9179   -7.4536    2.4810 H   0  0  0  0  0  0  0  0  0  0  0  0
   -1.8961   -9.8331    3.1972 H   0  0  0  0  0  0  0  0  0  0  0  0
    0.2284  -11.1178    3.1969 H   0  0  0  0  0  0  0  0  0  0  0  0
    2.3447  -10.0319    2.4826 H   0  0  0  0  0  0  0  0  0  0  0  0
    2.5772   -3.9807   -0.7614 H   0  0  0  0  0  0  0  0  0  0  0  0
    5.1564   -1.4014   -0.0777 H   0  0  0  0  0  0  0  0  0  0  0  0
    2.4787   -1.3697   -0.8977 H   0  0  0  0  0  0  0  0  0  0  0  0
    3.7263    0.5417    0.4960 H   0  0  0  0  0  0  0  0  0  0  0  0
    2.5276   -0.5012    1.1862 H   0  0  0  0  0  0  0  0  0  0  0  0
    5.3472    0.0804    2.2630 H   0  0  0  0  0  0  0  0  0  0  0  0
    6.5256   -3.5613    0.1075 H   0  0  0  0  0  0  0  0  0  0  0  0
    7.1701   -3.9114    1.7084 H   0  0  0  0  0  0  0  0  0  0  0  0
    6.6731   -2.2839    1.3311 H   0  0  0  0  0  0  0  0  0  0  0  0
  1  2  1  0
  1 29  1  0
  1 30  1  0
  1 31  1  0
  2 26  1  0
  2  3  1  0
  2  4  1  0
  3 32  1  0
  3 33  1  0
  3 34  1  0
  4 26  1  0
  4  5  2  3
  5  6  1  0
  5 35  1  0
  6 27  1  0
  6  7  1  0
  6 36  1  1
  7  8  2  0
  7  9  1  0
  9 27  1  0
  9 10  1  1
  9 11  1  0
 10 37  1  0
 11 12  1  0
 11 20  1  0
 11 38  1  6
 12 13  1  0
 13 14  1  0
 13 39  1  0
 13 40  1  0
 14 19  1  0
 14 15  2  0
 15 16  1  0
 15 41  1  0
 16 17  2  0
 16 42  1  0
 17 18  1  0
 17 43  1  0
 18 19  2  0
 18 44  1  0
 19 45  1  0
 20 22  1  0
 20 21  1  0
 20 46  1  6
 22 21  1  1
 22 23  1  0
 22 27  1  0
 23 24  1  0
 23 25  1  0
 23 47  1  6
 24 48  1  0
 25 26  1  0
 25 49  1  0
 25 50  1  0
 26 51  1  6
 27 28  1  1
 28 52  1  0
 28 53  1  0
 28 54  1  0
M  END
>  <i_m_ct_stereo_status>  (333) 
1

>  <s_m_source_file>  (333) 
/var/tmp/pbs.5076255.sched01/tmparsu8qf0/123n9qi1oz7.sdf

>  <i_m_source_file_index>  (333) 
18

>  <i_lp_mmshare_version>  (333) 
48012

>  <i_f3d_flags>  (333) 
0

>  <s_epik_input>  (333) 
W09IXVtDQEhdMVtDSDJdW0NIXShDMihbQ0gzXSlbQ0gzXSlDXDI9W0NIXS9bQ0BASF0oQzM9TylbQ0BAXTQoW0NIM10pW0NAXTMoW09IXSlbQ0BIXShbQ0BASF0oTzUpW0NAXTE0NSlPW0NIMl1jNltjSF1bY0hdW2NIXVtjSF1bY0hdNg==

>  <s_epik_cmdline>  (333) 
J2VwaWtfcHl0aG9uJywgJy1waHQnLCAnMi4wJywgJy1waCcsICc3LjAnLCAnLXRuJywgJzgnLCAnLW1hJywgJzIwMCcsICctaW1hZScsICc8aW5maWxlLm1hZT4nLCAnLW9tYWUnLCAnPG91dGZpbGUubWFlPic=

>  <r_lp_tautomer_probability>  (333) 
1

>  <r_epik_Ionization_Penalty>  (333) 
1.88022e-07

>  <r_epik_Ionization_Penalty_Charging>  (333) 
0

>  <r_epik_Ionization_Penalty_Neutral>  (333) 
1.88022e-07

>  <r_epik_State_Penalty>  (333) 
-0

>  <r_epik_Charging_Adjusted_Penalty>  (333) 
0

>  <i_epik_Tot_Q>  (333) 
0

>  <i_epik_Tot_abs_Q>  (333) 
0

>  <s_lp_Force_Field>  (333) 
OPLS3e

>  <r_lp_Energy>  (333) 
31.0748

>  <b_lp_Chiralities_Consistent>  (333) 
1

>  <s_lp_Variant>  (333) 
102:0-4

>  <s_i_glide_gridfile>  (333) 
pfpi4k_grid

>  <i_i_glide_lignum>  (333) 
18

>  <i_i_glide_rotatable_bonds>  (333) 
5

>  <r_i_docking_score>  (333) 
0.341667

>  <r_i_glide_ligand_efficiency>  (333) 
0.0122024

>  <r_i_glide_ligand_efficiency_sa>  (333) 
0.0370537

>  <r_i_glide_ligand_efficiency_ln>  (333) 
0.0788668

>  <r_i_glide_gscore>  (333) 
0.341667

>  <r_i_glide_lipo>  (333) 
-0.350697

>  <r_i_glide_hbond>  (333) 
0

>  <r_i_glide_metal>  (333) 
-0

>  <r_i_glide_rewards>  (333) 
-0.80148

>  <r_i_glide_evdw>  (333) 
-25.8826

>  <r_i_glide_ecoul>  (333) 
-2.09042

>  <r_i_glide_erotb>  (333) 
0.398347

>  <r_i_glide_esite>  (333) 
0

>  <r_i_glide_emodel>  (333) 
-18.0639

>  <r_i_glide_energy>  (333) 
-27.973

>  <r_i_glide_einternal>  (333) 
1.2054

>  <r_i_glide_intrahb_reward>  (333) 
-0

>  <i_i_glide_confnum>  (333) 
5

>  <i_i_glide_posenum>  (333) 
10

>  <r_i_glide_eff_state_penalty>  (333) 
0

>  <ligand_id>  (333) 
102

>  <original_smiles>  (333) 
CC1(C)C2=CC3C(=O)C4(O)C(OCc5ccccc5)C5OC5(C(O)CC21)C34C

>  <smiles>  (333) 
[H]OC1([H])C([H])([H])C2([H])C(=C([H])C3([H])C(=O)C4(O[H])C([H])(OC([H])([H])c5c([H])c([H])c([H])c([H])c5[H])C5([H])OC15C34C([H])([H])[H])C2(C([H])([H])[H])C([H])([H])[H]

$$$$
103:0:0
     RDKit          3D

 25 26  0  0  1  0  0  0  0  0999 V2000
   -4.4846  -11.5431   -5.5171 N   0  0  0  0  0  0  0  0  0  0  0  0
   -4.4088  -10.2579   -6.2228 C   0  0  0  0  0  0  0  0  0  0  0  0
   -5.6251   -9.4189   -5.9269 C   0  0  2  0  0  0  0  0  0  0  0  0
   -6.8672   -9.5531   -6.7762 C   0  0  0  0  0  0  0  0  0  0  0  0
   -6.0489   -8.2884   -6.8426 C   0  0  1  0  0  0  0  0  0  0  0  0
   -6.6057   -7.0123   -6.2891 C   0  0  0  0  0  0  0  0  0  0  0  0
   -7.7405   -6.4176   -6.8839 C   0  0  0  0  0  0  0  0  0  0  0  0
   -8.2970   -5.2438   -6.3438 C   0  0  0  0  0  0  0  0  0  0  0  0
   -7.7230   -4.6530   -5.2027 C   0  0  0  0  0  0  0  0  0  0  0  0
   -6.5854   -5.2328   -4.6135 C   0  0  0  0  0  0  0  0  0  0  0  0
   -6.0251   -6.4043   -5.1558 C   0  0  0  0  0  0  0  0  0  0  0  0
   -3.6742  -12.1122   -5.7199 H   0  0  0  0  0  0  0  0  0  0  0  0
   -5.3265  -12.0288   -5.7924 H   0  0  0  0  0  0  0  0  0  0  0  0
   -3.5188   -9.7222   -5.9004 H   0  0  0  0  0  0  0  0  0  0  0  0
   -4.3299  -10.4364   -7.2929 H   0  0  0  0  0  0  0  0  0  0  0  0
   -5.7552   -9.2275   -4.8638 H   0  0  0  0  0  0  0  0  0  0  0  0
   -6.8235  -10.2490   -7.6156 H   0  0  0  0  0  0  0  0  0  0  0  0
   -7.8280   -9.4875   -6.2688 H   0  0  0  0  0  0  0  0  0  0  0  0
   -5.4688   -8.0957   -7.7448 H   0  0  0  0  0  0  0  0  0  0  0  0
   -8.2005   -6.8748   -7.7498 H   0  0  0  0  0  0  0  0  0  0  0  0
   -9.1823   -4.8091   -6.7858 H   0  0  0  0  0  0  0  0  0  0  0  0
   -8.1592   -3.7636   -4.7699 H   0  0  0  0  0  0  0  0  0  0  0  0
   -6.1660   -4.7876   -3.7253 H   0  0  0  0  0  0  0  0  0  0  0  0
   -5.1603   -6.8533   -4.6882 H   0  0  0  0  0  0  0  0  0  0  0  0
   -4.5011  -11.3819   -4.5197 H   0  0  0  0  0  0  0  0  0  0  0  0
  1  2  1  0
  1 12  1  0
  1 13  1  0
  1 25  1  0
  2  3  1  0
  2 14  1  0
  2 15  1  0
  3  5  1  0
  3  4  1  0
  3 16  1  1
  4  5  1  0
  4 17  1  0
  4 18  1  0
  5  6  1  0
  5 19  1  6
  6 11  1  0
  6  7  2  0
  7  8  1  0
  7 20  1  0
  8  9  2  0
  8 21  1  0
  9 10  1  0
  9 22  1  0
 10 11  2  0
 10 23  1  0
 11 24  1  0
M  CHG  1   1   1
M  END
>  <i_m_ct_stereo_status>  (334) 
1

>  <s_m_source_file>  (334) 
/var/tmp/pbs.5076255.sched01/tmparsu8qf0/123n9qi1oz7.sdf

>  <i_m_source_file_index>  (334) 
19

>  <i_lp_mmshare_version>  (334) 
48012

>  <i_f3d_flags>  (334) 
0

>  <s_epik_input>  (334) 
W05IMl1bQ0gyXVtDQEBIXTFbQ0gyXVtDQEhdMWMyW2NIXVtjSF1bY0hdW2NIXVtjSF0y

>  <s_epik_cmdline>  (334) 
J2VwaWtfcHl0aG9uJywgJy1waHQnLCAnMi4wJywgJy1waCcsICc3LjAnLCAnLXRuJywgJzgnLCAnLW1hJywgJzIwMCcsICctaW1hZScsICc8aW5maWxlLm1hZT4nLCAnLW9tYWUnLCAnPG91dGZpbGUubWFlPic=

>  <r_epik_Ionization_Penalty>  (334) 
0.000527966

>  <r_epik_Ionization_Penalty_Charging>  (334) 
0.000527966

>  <r_epik_Ionization_Penalty_Neutral>  (334) 
0

>  <r_epik_State_Penalty>  (334) 
0.000329679

>  <r_epik_Charging_Adjusted_Penalty>  (334) 
0.000857645

>  <i_epik_Tot_Q>  (334) 
1

>  <i_epik_Tot_abs_Q>  (334) 
1

>  <s_lp_Force_Field>  (334) 
OPLS3e

>  <r_lp_Energy>  (334) 
18.2593

>  <b_lp_Chiralities_Consistent>  (334) 
1

>  <s_lp_Variant>  (334) 
103:0-1

>  <s_i_glide_gridfile>  (334) 
pfpi4k_grid

>  <i_i_glide_lignum>  (334) 
19

>  <i_i_glide_rotatable_bonds>  (334) 
2

>  <r_i_docking_score>  (334) 
-6.18149

>  <r_i_glide_ligand_efficiency>  (334) 
-0.561953

>  <r_i_glide_ligand_efficiency_sa>  (334) 
-1.24977

>  <r_i_glide_ligand_efficiency_ln>  (334) 
-1.81921

>  <r_i_glide_gscore>  (334) 
-6.18149

>  <r_i_glide_lipo>  (334) 
-2.44196

>  <r_i_glide_hbond>  (334) 
0

>  <r_i_glide_metal>  (334) 
-0

>  <r_i_glide_rewards>  (334) 
-2.8

>  <r_i_glide_evdw>  (334) 
-18.6036

>  <r_i_glide_ecoul>  (334) 
-4.1953

>  <r_i_glide_erotb>  (334) 
0.665886

>  <r_i_glide_esite>  (334) 
-0.04594

>  <r_i_glide_emodel>  (334) 
-31.6477

>  <r_i_glide_energy>  (334) 
-22.7989

>  <r_i_glide_einternal>  (334) 
0.288671

>  <r_i_glide_intrahb_reward>  (334) 
-0

>  <i_i_glide_confnum>  (334) 
6

>  <i_i_glide_posenum>  (334) 
8

>  <r_i_glide_eff_state_penalty>  (334) 
0

>  <ligand_id>  (334) 
103

>  <original_smiles>  (334) 
NCC1CC1c1ccccc1

>  <smiles>  (334) 
[H]c1c([H])c([H])c(C2([H])C([H])([H])C2([H])C([H])([H])[N+]([H])([H])[H])c([H])c1[H]

$$$$
103:0:1
     RDKit          3D

 25 26  0  0  1  0  0  0  0  0999 V2000
   -3.1268  -10.7427   -5.1369 N   0  0  0  0  0  0  0  0  0  0  0  0
   -4.2829  -10.8433   -6.0243 C   0  0  0  0  0  0  0  0  0  0  0  0
   -5.3666   -9.8523   -5.6597 C   0  0  2  0  0  0  0  0  0  0  0  0
   -6.7217   -9.9283   -6.3269 C   0  0  0  0  0  0  0  0  0  0  0  0
   -5.8028   -8.7683   -6.6152 C   0  0  1  0  0  0  0  0  0  0  0  0
   -6.1144   -7.4016   -6.1057 C   0  0  0  0  0  0  0  0  0  0  0  0
   -5.1616   -6.6722   -5.3622 C   0  0  0  0  0  0  0  0  0  0  0  0
   -5.4770   -5.3862   -4.8806 C   0  0  0  0  0  0  0  0  0  0  0  0
   -6.7439   -4.8248   -5.1239 C   0  0  0  0  0  0  0  0  0  0  0  0
   -7.6953   -5.5480   -5.8683 C   0  0  0  0  0  0  0  0  0  0  0  0
   -7.3794   -6.8264   -6.3607 C   0  0  0  0  0  0  0  0  0  0  0  0
   -2.4285  -11.4126   -5.4054 H   0  0  0  0  0  0  0  0  0  0  0  0
   -3.4152  -10.9445   -4.1676 H   0  0  0  0  0  0  0  0  0  0  0  0
   -3.9683  -10.6770   -7.0579 H   0  0  0  0  0  0  0  0  0  0  0  0
   -4.6903  -11.8552   -5.9707 H   0  0  0  0  0  0  0  0  0  0  0  0
   -5.3840   -9.6012   -4.6010 H   0  0  0  0  0  0  0  0  0  0  0  0
   -6.8756  -10.6759   -7.1052 H   0  0  0  0  0  0  0  0  0  0  0  0
   -7.5963   -9.7090   -5.7168 H   0  0  0  0  0  0  0  0  0  0  0  0
   -5.3264   -8.7196   -7.5957 H   0  0  0  0  0  0  0  0  0  0  0  0
   -4.1879   -7.1034   -5.1715 H   0  0  0  0  0  0  0  0  0  0  0  0
   -4.7493   -4.8166   -4.3230 H   0  0  0  0  0  0  0  0  0  0  0  0
   -6.9812   -3.8400   -4.7475 H   0  0  0  0  0  0  0  0  0  0  0  0
   -8.6737   -5.1286   -6.0524 H   0  0  0  0  0  0  0  0  0  0  0  0
   -8.1184   -7.3836   -6.9191 H   0  0  0  0  0  0  0  0  0  0  0  0
   -2.7372   -9.8115   -5.1633 H   0  0  0  0  0  0  0  0  0  0  0  0
  1  2  1  0
  1 12  1  0
  1 13  1  0
  1 25  1  0
  2  3  1  0
  2 14  1  0
  2 15  1  0
  3  5  1  0
  3  4  1  0
  3 16  1  1
  4  5  1  0
  4 17  1  0
  4 18  1  0
  5  6  1  0
  5 19  1  6
  6 11  1  0
  6  7  2  0
  7  8  1  0
  7 20  1  0
  8  9  2  0
  8 21  1  0
  9 10  1  0
  9 22  1  0
 10 11  2  0
 10 23  1  0
 11 24  1  0
M  CHG  1   1   1
M  END
>  <i_m_ct_stereo_status>  (335) 
1

>  <s_m_source_file>  (335) 
/var/tmp/pbs.5076255.sched01/tmparsu8qf0/123n9qi1oz7.sdf

>  <i_m_source_file_index>  (335) 
19

>  <i_lp_mmshare_version>  (335) 
48012

>  <i_f3d_flags>  (335) 
0

>  <s_epik_input>  (335) 
W05IMl1bQ0gyXVtDQEBIXTFbQ0gyXVtDQEhdMWMyW2NIXVtjSF1bY0hdW2NIXVtjSF0y

>  <s_epik_cmdline>  (335) 
J2VwaWtfcHl0aG9uJywgJy1waHQnLCAnMi4wJywgJy1waCcsICc3LjAnLCAnLXRuJywgJzgnLCAnLW1hJywgJzIwMCcsICctaW1hZScsICc8aW5maWxlLm1hZT4nLCAnLW9tYWUnLCAnPG91dGZpbGUubWFlPic=

>  <r_epik_Ionization_Penalty>  (335) 
0.000527966

>  <r_epik_Ionization_Penalty_Charging>  (335) 
0.000527966

>  <r_epik_Ionization_Penalty_Neutral>  (335) 
0

>  <r_epik_State_Penalty>  (335) 
0.000329679

>  <r_epik_Charging_Adjusted_Penalty>  (335) 
0.000857645

>  <i_epik_Tot_Q>  (335) 
1

>  <i_epik_Tot_abs_Q>  (335) 
1

>  <s_lp_Force_Field>  (335) 
OPLS3e

>  <r_lp_Energy>  (335) 
18.2593

>  <b_lp_Chiralities_Consistent>  (335) 
1

>  <s_lp_Variant>  (335) 
103:0-1

>  <s_i_glide_gridfile>  (335) 
pfpi4k_grid

>  <i_i_glide_lignum>  (335) 
19

>  <i_i_glide_rotatable_bonds>  (335) 
2

>  <r_i_docking_score>  (335) 
-5.51863

>  <r_i_glide_ligand_efficiency>  (335) 
-0.501694

>  <r_i_glide_ligand_efficiency_sa>  (335) 
-1.11576

>  <r_i_glide_ligand_efficiency_ln>  (335) 
-1.62413

>  <r_i_glide_gscore>  (335) 
-5.51863

>  <r_i_glide_lipo>  (335) 
-1.97233

>  <r_i_glide_hbond>  (335) 
0

>  <r_i_glide_metal>  (335) 
-0

>  <r_i_glide_rewards>  (335) 
-2.25

>  <r_i_glide_evdw>  (335) 
-18.186

>  <r_i_glide_ecoul>  (335) 
-6.84149

>  <r_i_glide_erotb>  (335) 
0.665886

>  <r_i_glide_esite>  (335) 
-0.0266597

>  <r_i_glide_emodel>  (335) 
-32.8789

>  <r_i_glide_energy>  (335) 
-25.0275

>  <r_i_glide_einternal>  (335) 
0.425772

>  <r_i_glide_intrahb_reward>  (335) 
-0

>  <i_i_glide_confnum>  (335) 
2

>  <i_i_glide_posenum>  (335) 
24

>  <r_i_glide_eff_state_penalty>  (335) 
0

>  <ligand_id>  (335) 
103

>  <original_smiles>  (335) 
NCC1CC1c1ccccc1

>  <smiles>  (335) 
[H]c1c([H])c([H])c(C2([H])C([H])([H])C2([H])C([H])([H])[N+]([H])([H])[H])c([H])c1[H]

$$$$
104:0:0
     RDKit          3D

 90 96  0  0  1  0  0  0  0  0999 V2000
    4.5940   -3.3972   -3.0707 C   0  0  0  0  0  0  0  0  0  0  0  0
    5.2625   -3.5069   -1.6965 C   0  0  2  0  0  0  0  0  0  0  0  0
    4.3924   -4.2593   -0.6972 C   0  0  0  0  0  0  0  0  0  0  0  0
    4.1400   -3.8178    0.5425 C   0  0  0  0  0  0  0  0  0  0  0  0
    4.6209   -2.4673    1.0071 C   0  0  2  0  0  0  0  0  0  0  0  0
    5.9701   -2.0909    0.3616 C   0  0  1  0  0  0  0  0  0  0  0  0
    6.9887   -3.0361    0.6851 O   0  0  0  0  0  0  0  0  0  0  0  0
    8.2833   -2.8963    0.3268 C   0  0  0  0  0  0  0  0  0  0  0  0
    8.6407   -1.5691    0.2021 N   0  0  0  0  0  0  0  0  0  0  0  0
    9.0481   -3.8460    0.1685 O   0  0  0  0  0  0  0  0  0  0  0  0
    5.7439   -2.1272   -1.1736 C   0  0  0  0  0  0  0  0  0  0  0  0
    4.3376   -2.5272    2.5217 C   0  0  2  0  0  0  0  0  0  0  0  0
    4.3864   -1.1618    3.2198 C   0  0  0  0  0  0  0  0  0  0  0  0
    5.1570   -3.6385    3.2337 C   0  0  0  0  0  0  0  0  0  0  0  0
    4.3913   -4.9262    2.8676 C   0  0  1  0  0  0  0  0  0  0  0  0
    3.4233   -4.4556    1.7432 C   0  0  2  0  0  0  0  0  0  0  0  0
    2.3598   -5.5229    1.3884 C   0  0  0  0  0  0  0  0  0  0  0  0
    2.5658   -6.8400    2.1627 C   0  0  0  0  0  0  0  0  0  0  0  0
    4.0433   -7.3852    2.1845 C   0  0  2  0  0  0  0  0  0  0  0  0
    4.2246   -7.9141    0.7325 C   0  0  0  0  0  0  0  0  0  0  0  0
    4.2433   -8.5513    3.2119 C   0  0  1  0  0  0  0  0  0  0  0  0
    5.6441   -9.2222    2.9888 C   0  0  0  0  0  0  0  0  0  0  0  0
    6.6093   -8.2227    3.6364 C   0  0  1  0  0  0  0  0  0  0  0  0
    7.8153   -8.0010    2.9366 O   0  0  0  0  0  0  0  0  0  0  0  0
    5.6242   -7.0732    4.0662 C   0  0  2  0  0  0  0  0  0  0  0  0
    6.2647   -6.1456    5.1168 C   0  0  0  0  0  0  0  0  0  0  0  0
    4.4080   -7.9516    4.6433 C   0  0  1  0  0  0  0  0  0  0  0  0
    3.2189   -7.1396    5.2920 C   0  0  0  0  0  0  0  0  0  0  0  0
    4.6182   -9.0866    5.7282 C   0  0  2  0  0  0  0  0  0  0  0  0
    5.9819   -9.2542    6.0838 O   0  0  0  0  0  0  0  0  0  0  0  0
    6.2558  -10.1968    7.1036 C   0  0  0  0  0  0  0  0  0  0  0  0
    5.7133  -11.5807    6.7135 C   0  0  1  0  0  0  0  0  0  0  0  0
    6.0160  -12.5865    7.8138 C   0  0  0  0  0  0  0  0  0  0  0  0
    4.2129  -11.5030    6.4440 C   0  0  0  0  0  0  0  0  0  0  0  0
    3.9182  -10.4448    5.3817 C   0  0  1  0  0  0  0  0  0  0  0  0
    2.5070  -10.2554    5.3436 O   0  0  0  0  0  0  0  0  0  0  0  0
    5.1028   -6.3273    2.7128 C   0  0  2  0  0  0  0  0  0  0  0  0
    6.2583   -6.0728    1.7033 C   0  0  0  0  0  0  0  0  0  0  0  0
    2.9331   -3.1688    2.4392 C   0  0  0  0  0  0  0  0  0  0  0  0
    4.3786   -4.3824   -3.4844 H   0  0  0  0  0  0  0  0  0  0  0  0
    5.2413   -2.8868   -3.7826 H   0  0  0  0  0  0  0  0  0  0  0  0
    3.6545   -2.8456   -3.0080 H   0  0  0  0  0  0  0  0  0  0  0  0
    6.1493   -4.1262   -1.8078 H   0  0  0  0  0  0  0  0  0  0  0  0
    4.0806   -5.2409   -0.9982 H   0  0  0  0  0  0  0  0  0  0  0  0
    3.9073   -1.7499    0.5996 H   0  0  0  0  0  0  0  0  0  0  0  0
    6.2369   -1.0904    0.6998 H   0  0  0  0  0  0  0  0  0  0  0  0
    8.0010   -0.8550    0.5359 H   0  0  0  0  0  0  0  0  0  0  0  0
    9.5874   -1.3540   -0.0984 H   0  0  0  0  0  0  0  0  0  0  0  0
    6.6554   -1.8682   -1.7092 H   0  0  0  0  0  0  0  0  0  0  0  0
    5.0110   -1.3601   -1.4339 H   0  0  0  0  0  0  0  0  0  0  0  0
    4.0472   -1.2381    4.2532 H   0  0  0  0  0  0  0  0  0  0  0  0
    3.7455   -0.4392    2.7142 H   0  0  0  0  0  0  0  0  0  0  0  0
    5.4007   -0.7600    3.2300 H   0  0  0  0  0  0  0  0  0  0  0  0
    6.1958   -3.6569    2.9177 H   0  0  0  0  0  0  0  0  0  0  0  0
    5.1387   -3.4980    4.3164 H   0  0  0  0  0  0  0  0  0  0  0  0
    3.7295   -5.0391    3.6968 H   0  0  0  0  0  0  0  0  0  0  0  0
    1.3791   -5.1319    1.6505 H   0  0  0  0  0  0  0  0  0  0  0  0
    2.3180   -5.7227    0.3161 H   0  0  0  0  0  0  0  0  0  0  0  0
    2.1780   -6.6219    3.1419 H   0  0  0  0  0  0  0  0  0  0  0  0
    1.8838   -7.6028    1.7835 H   0  0  0  0  0  0  0  0  0  0  0  0
    5.2036   -8.2911    0.4708 H   0  0  0  0  0  0  0  0  0  0  0  0
    4.0269   -7.1404    0.0019 H   0  0  0  0  0  0  0  0  0  0  0  0
    3.5331   -8.7382    0.5482 H   0  0  0  0  0  0  0  0  0  0  0  0
    3.4286   -9.2569    3.0961 H   0  0  0  0  0  0  0  0  0  0  0  0
    5.7478  -10.1567    3.5126 H   0  0  0  0  0  0  0  0  0  0  0  0
    5.9180   -9.4487    1.9602 H   0  0  0  0  0  0  0  0  0  0  0  0
    7.1047   -8.6624    4.4721 H   0  0  0  0  0  0  0  0  0  0  0  0
    8.3100   -8.8142    2.9383 H   0  0  0  0  0  0  0  0  0  0  0  0
    5.5536   -5.4255    5.5199 H   0  0  0  0  0  0  0  0  0  0  0  0
    7.1129   -5.6004    4.7063 H   0  0  0  0  0  0  0  0  0  0  0  0
    6.6288   -6.7265    5.9594 H   0  0  0  0  0  0  0  0  0  0  0  0
    3.1682   -7.2516    6.3714 H   0  0  0  0  0  0  0  0  0  0  0  0
    2.2364   -7.4875    4.9786 H   0  0  0  0  0  0  0  0  0  0  0  0
    3.2439   -6.0600    5.2427 H   0  0  0  0  0  0  0  0  0  0  0  0
    4.2001   -8.7807    6.6893 H   0  0  0  0  0  0  0  0  0  0  0  0
    7.3428  -10.2359    7.2178 H   0  0  0  0  0  0  0  0  0  0  0  0
    5.8552   -9.8733    8.0770 H   0  0  0  0  0  0  0  0  0  0  0  0
    6.2201  -11.8928    5.8069 H   0  0  0  0  0  0  0  0  0  0  0  0
    5.5460  -12.2722    8.7460 H   0  0  0  0  0  0  0  0  0  0  0  0
    7.0884  -12.6721    8.0038 H   0  0  0  0  0  0  0  0  0  0  0  0
    5.6355  -13.5784    7.5724 H   0  0  0  0  0  0  0  0  0  0  0  0
    3.8381  -12.4635    6.0878 H   0  0  0  0  0  0  0  0  0  0  0  0
    3.6745  -11.2885    7.3703 H   0  0  0  0  0  0  0  0  0  0  0  0
    4.2650  -10.8551    4.4400 H   0  0  0  0  0  0  0  0  0  0  0  0
    2.0528  -10.9219    5.8605 H   0  0  0  0  0  0  0  0  0  0  0  0
    6.6367   -6.9693    1.2279 H   0  0  0  0  0  0  0  0  0  0  0  0
    7.1006   -5.5897    2.1987 H   0  0  0  0  0  0  0  0  0  0  0  0
    5.9878   -5.4661    0.8579 H   0  0  0  0  0  0  0  0  0  0  0  0
    2.4676   -3.3305    3.4144 H   0  0  0  0  0  0  0  0  0  0  0  0
    2.2273   -2.5996    1.8299 H   0  0  0  0  0  0  0  0  0  0  0  0
  1  2  1  0
  1 40  1  0
  1 41  1  0
  1 42  1  0
  2 11  1  0
  2  3  1  0
  2 43  1  6
  3  4  2  0
  3 44  1  0
  4 16  1  0
  4  5  1  0
  5  6  1  0
  5 12  1  0
  5 45  1  6
  6  7  1  0
  6 11  1  0
  6 46  1  1
  7  8  1  0
  8  9  1  0
  8 10  2  0
  9 47  1  0
  9 48  1  0
 11 49  1  0
 11 50  1  0
 12 39  1  0
 12 13  1  1
 12 14  1  0
 13 51  1  0
 13 52  1  0
 13 53  1  0
 14 15  1  0
 14 54  1  0
 14 55  1  0
 15 37  1  0
 15 16  1  0
 15 56  1  1
 16 17  1  6
 16 39  1  0
 17 18  1  0
 17 57  1  0
 17 58  1  0
 18 19  1  0
 18 59  1  0
 18 60  1  0
 19 37  1  0
 19 20  1  6
 19 21  1  0
 20 61  1  0
 20 62  1  0
 20 63  1  0
 21 27  1  0
 21 22  1  0
 21 64  1  1
 22 23  1  0
 22 65  1  0
 22 66  1  0
 23 24  1  0
 23 25  1  0
 23 67  1  1
 24 68  1  0
 25 26  1  1
 25 27  1  0
 25 37  1  0
 26 69  1  0
 26 70  1  0
 26 71  1  0
 27 28  1  1
 27 29  1  0
 28 72  1  0
 28 73  1  0
 28 74  1  0
 29 35  1  0
 29 30  1  0
 29 75  1  1
 30 31  1  0
 31 32  1  0
 31 76  1  0
 31 77  1  0
 32 33  1  0
 32 34  1  0
 32 78  1  6
 33 79  1  0
 33 80  1  0
 33 81  1  0
 34 35  1  0
 34 82  1  0
 34 83  1  0
 35 36  1  0
 35 84  1  6
 36 85  1  0
 37 38  1  6
 38 86  1  0
 38 87  1  0
 38 88  1  0
 39 89  1  0
 39 90  1  0
M  END
>  <i_m_ct_stereo_status>  (336) 
1

>  <s_m_source_file>  (336) 
/var/tmp/pbs.5076255.sched01/tmparsu8qf0/123n9qi1oz7.sdf

>  <i_m_source_file_index>  (336) 
20

>  <i_lp_mmshare_version>  (336) 
48012

>  <i_f3d_flags>  (336) 
0

>  <s_epik_input>  (336) 
W0NIM11bQ0BIXShbQ0hdPTEpW0NIMl1bQ0BIXShPQyg9TylbTkgyXSlbQ0BASF0oQzFbQ0BdMjM0KVtDQEBdKFtDSDNdKShbQ0gyXTQpW0NIMl1bQ0BASF0yW0NAXTUoW0NIM10pW0NAXShbQ0gzXSkoW0NIMl1bQ0gyXTMpW0NASF02W0NIMl1bQ0BASF0oW09IXSlbQ0BdNShbQ0gzXSlbQ0BdNihbQ0gzXSlbQ0BASF03T1tDSDJdW0NAQEhdKFtDSDNdKVtDSDJdW0NASF03W09IXQ==

>  <s_epik_cmdline>  (336) 
J2VwaWtfcHl0aG9uJywgJy1waHQnLCAnMi4wJywgJy1waCcsICc3LjAnLCAnLXRuJywgJzgnLCAnLW1hJywgJzIwMCcsICctaW1hZScsICc8aW5maWxlLm1hZT4nLCAnLW9tYWUnLCAnPG91dGZpbGUubWFlPic=

>  <r_lp_tautomer_probability>  (336) 
1

>  <r_epik_Ionization_Penalty>  (336) 
6.90576e-06

>  <r_epik_Ionization_Penalty_Charging>  (336) 
0

>  <r_epik_Ionization_Penalty_Neutral>  (336) 
6.90576e-06

>  <r_epik_State_Penalty>  (336) 
-0

>  <r_epik_Charging_Adjusted_Penalty>  (336) 
0

>  <i_epik_Tot_Q>  (336) 
0

>  <i_epik_Tot_abs_Q>  (336) 
0

>  <s_epik_Chemistry_Notes>  (336) 
This compound has an ester and may undergo hydrolysis at high or low pH.

>  <s_lp_Force_Field>  (336) 
OPLS3e

>  <r_lp_Energy>  (336) 
147.976

>  <b_lp_Chiralities_Consistent>  (336) 
1

>  <s_lp_Variant>  (336) 
104:0-1

>  <s_i_glide_gridfile>  (336) 
pfpi4k_grid

>  <i_i_glide_lignum>  (336) 
20

>  <i_i_glide_rotatable_bonds>  (336) 
5

>  <r_i_docking_score>  (336) 
-3.54874

>  <r_i_glide_ligand_efficiency>  (336) 
-0.0909933

>  <r_i_glide_ligand_efficiency_sa>  (336) 
-0.308578

>  <r_i_glide_ligand_efficiency_ln>  (336) 
-0.760951

>  <r_i_glide_gscore>  (336) 
-3.54874

>  <r_i_glide_lipo>  (336) 
-0.524661

>  <r_i_glide_hbond>  (336) 
-0.270179

>  <r_i_glide_metal>  (336) 
-0

>  <r_i_glide_rewards>  (336) 
-0.267604

>  <r_i_glide_evdw>  (336) 
-31.1774

>  <r_i_glide_ecoul>  (336) 
-6.58566

>  <r_i_glide_erotb>  (336) 
0.140933

>  <r_i_glide_esite>  (336) 
-0.0805097

>  <r_i_glide_emodel>  (336) 
-34.3946

>  <r_i_glide_energy>  (336) 
-37.7631

>  <r_i_glide_einternal>  (336) 
19.4091

>  <r_i_glide_intrahb_reward>  (336) 
-0

>  <i_i_glide_confnum>  (336) 
2

>  <i_i_glide_posenum>  (336) 
10

>  <r_i_glide_eff_state_penalty>  (336) 
0

>  <ligand_id>  (336) 
104

>  <original_smiles>  (336) 
CC1C=C2C(C(OC(N)=O)C1)C1(C)CC3C2(CCC2(C)C4CC(O)C(C)(C4(C)C4OCC(C)CC4O)C32C)C1

>  <smiles>  (336) 
[H]OC1([H])C([H])([H])C([H])(C([H])([H])[H])C([H])([H])OC1([H])C1(C([H])([H])[H])C2([H])C([H])([H])C([H])(O[H])C1(C([H])([H])[H])C1(C([H])([H])[H])C3([H])C([H])([H])C4(C([H])([H])[H])C([H])([H])C3(C3=C([H])C([H])(C([H])([H])[H])C([H])([H])C([H])(OC(=O)N([H])[H])C34[H])C([H])([H])C([H])([H])C21C([H])([H])[H]

$$$$
104:0:1
     RDKit          3D

 90 96  0  0  1  0  0  0  0  0999 V2000
    4.4314   -3.3109   -3.1395 C   0  0  0  0  0  0  0  0  0  0  0  0
    5.1727   -3.4293   -1.7990 C   0  0  2  0  0  0  0  0  0  0  0  0
    4.3461   -4.1830   -0.7576 C   0  0  0  0  0  0  0  0  0  0  0  0
    4.1481   -3.7429    0.4996 C   0  0  0  0  0  0  0  0  0  0  0  0
    4.6479   -2.3983    0.9376 C   0  0  2  0  0  0  0  0  0  0  0  0
    5.9666   -2.0214    0.2351 C   0  0  1  0  0  0  0  0  0  0  0  0
    7.0008   -2.9594    0.5190 O   0  0  0  0  0  0  0  0  0  0  0  0
    8.2967   -2.8188    0.1438 C   0  0  0  0  0  0  0  0  0  0  0  0
    8.6774   -1.4730    0.1493 N   0  0  0  0  0  0  0  0  0  0  0  0
    9.0379   -3.7349   -0.1107 O   0  0  0  0  0  0  0  0  0  0  0  0
    5.6857   -2.0587   -1.2904 C   0  0  0  0  0  0  0  0  0  0  0  0
    4.4228   -2.4576    2.4662 C   0  0  2  0  0  0  0  0  0  0  0  0
    4.5106   -1.0922    3.1606 C   0  0  0  0  0  0  0  0  0  0  0  0
    5.2498   -3.5780    3.1415 C   0  0  0  0  0  0  0  0  0  0  0  0
    4.4826   -4.8625    2.7877 C   0  0  1  0  0  0  0  0  0  0  0  0
    3.4700   -4.3839    1.7207 C   0  0  2  0  0  0  0  0  0  0  0  0
    2.3933   -5.4504    1.4149 C   0  0  0  0  0  0  0  0  0  0  0  0
    2.6210   -6.7754    2.1626 C   0  0  0  0  0  0  0  0  0  0  0  0
    4.0888   -7.3391    2.1233 C   0  0  2  0  0  0  0  0  0  0  0  0
    4.2168   -7.8594    0.6728 C   0  0  0  0  0  0  0  0  0  0  0  0
    4.3263   -8.5070    3.1733 C   0  0  1  0  0  0  0  0  0  0  0  0
    5.7151   -9.1956    2.9043 C   0  0  0  0  0  0  0  0  0  0  0  0
    6.7079   -8.2012    3.5392 C   0  0  1  0  0  0  0  0  0  0  0  0
    7.8861   -7.9915    2.7862 O   0  0  0  0  0  0  0  0  0  0  0  0
    5.7592   -6.9987    3.9302 C   0  0  2  0  0  0  0  0  0  0  0  0
    6.5160   -6.0252    4.8757 C   0  0  0  0  0  0  0  0  0  0  0  0
    4.5566   -7.8490    4.5908 C   0  0  1  0  0  0  0  0  0  0  0  0
    3.3461   -7.0388    5.2080 C   0  0  0  0  0  0  0  0  0  0  0  0
    4.8549   -8.9280    5.7239 C   0  0  2  0  0  0  0  0  0  0  0  0
    3.7781   -9.8848    5.6791 O   0  0  0  0  0  0  0  0  0  0  0  0
    3.9374  -10.9875    6.5817 C   0  0  0  0  0  0  0  0  0  0  0  0
    3.9889  -10.4958    8.0405 C   0  0  1  0  0  0  0  0  0  0  0  0
    4.2138  -11.6205    9.0478 C   0  0  0  0  0  0  0  0  0  0  0  0
    5.1467   -9.4679    8.1845 C   0  0  0  0  0  0  0  0  0  0  0  0
    5.0072   -8.3432    7.1653 C   0  0  1  0  0  0  0  0  0  0  0  0
    6.1771   -7.5876    7.3563 O   0  0  0  0  0  0  0  0  0  0  0  0
    5.1751   -6.2744    2.5845 C   0  0  2  0  0  0  0  0  0  0  0  0
    6.3068   -6.0276    1.5508 C   0  0  0  0  0  0  0  0  0  0  0  0
    3.0181   -3.0963    2.4401 C   0  0  0  0  0  0  0  0  0  0  0  0
    4.1889   -4.2915   -3.5474 H   0  0  0  0  0  0  0  0  0  0  0  0
    5.0295   -2.8017   -3.8920 H   0  0  0  0  0  0  0  0  0  0  0  0
    3.4959   -2.7631   -3.0278 H   0  0  0  0  0  0  0  0  0  0  0  0
    6.0432   -4.0573   -1.9760 H   0  0  0  0  0  0  0  0  0  0  0  0
    3.9913   -5.1482   -1.0511 H   0  0  0  0  0  0  0  0  0  0  0  0
    3.9273   -1.6678    0.5622 H   0  0  0  0  0  0  0  0  0  0  0  0
    6.2425   -1.0136    0.5482 H   0  0  0  0  0  0  0  0  0  0  0  0
    8.0022   -0.8083    0.5082 H   0  0  0  0  0  0  0  0  0  0  0  0
    9.5959   -1.2300   -0.1678 H   0  0  0  0  0  0  0  0  0  0  0  0
    6.5668   -1.7811   -1.8573 H   0  0  0  0  0  0  0  0  0  0  0  0
    4.9430   -1.3012   -1.5184 H   0  0  0  0  0  0  0  0  0  0  0  0
    4.2184   -1.1740    4.2066 H   0  0  0  0  0  0  0  0  0  0  0  0
    3.8474   -0.3667    2.6878 H   0  0  0  0  0  0  0  0  0  0  0  0
    5.5257   -0.6923    3.1265 H   0  0  0  0  0  0  0  0  0  0  0  0
    6.2521   -3.6058    2.7703 H   0  0  0  0  0  0  0  0  0  0  0  0
    5.3025   -3.4251    4.2187 H   0  0  0  0  0  0  0  0  0  0  0  0
    3.8675   -4.9590    3.6448 H   0  0  0  0  0  0  0  0  0  0  0  0
    1.4247   -5.0581    1.7211 H   0  0  0  0  0  0  0  0  0  0  0  0
    2.3039   -5.6462    0.3489 H   0  0  0  0  0  0  0  0  0  0  0  0
    2.2603   -6.5336    3.1413 H   0  0  0  0  0  0  0  0  0  0  0  0
    1.9162   -7.5353    1.8332 H   0  0  0  0  0  0  0  0  0  0  0  0
    5.1870   -8.2355    0.3876 H   0  0  0  0  0  0  0  0  0  0  0  0
    3.9943   -7.0731   -0.0361 H   0  0  0  0  0  0  0  0  0  0  0  0
    3.5185   -8.6744    0.4995 H   0  0  0  0  0  0  0  0  0  0  0  0
    3.5173   -9.2423    3.1544 H   0  0  0  0  0  0  0  0  0  0  0  0
    5.7850  -10.1694    3.3897 H   0  0  0  0  0  0  0  0  0  0  0  0
    5.9344   -9.4186    1.8639 H   0  0  0  0  0  0  0  0  0  0  0  0
    7.1610   -8.6259    4.4344 H   0  0  0  0  0  0  0  0  0  0  0  0
    8.5095   -7.4998    3.3024 H   0  0  0  0  0  0  0  0  0  0  0  0
    5.8009   -5.3783    5.3979 H   0  0  0  0  0  0  0  0  0  0  0  0
    7.2627   -5.4258    4.3483 H   0  0  0  0  0  0  0  0  0  0  0  0
    7.1101   -6.5739    5.5959 H   0  0  0  0  0  0  0  0  0  0  0  0
    3.1953   -7.1254    6.2499 H   0  0  0  0  0  0  0  0  0  0  0  0
    2.3713   -7.4259    4.8654 H   0  0  0  0  0  0  0  0  0  0  0  0
    3.4947   -5.9552    5.1977 H   0  0  0  0  0  0  0  0  0  0  0  0
    5.7187   -9.5562    5.5152 H   0  0  0  0  0  0  0  0  0  0  0  0
    3.1059  -11.6746    6.4554 H   0  0  0  0  0  0  0  0  0  0  0  0
    4.8418  -11.5485    6.3403 H   0  0  0  0  0  0  0  0  0  0  0  0
    3.0483   -9.9878    8.2626 H   0  0  0  0  0  0  0  0  0  0  0  0
    5.1579  -12.1146    8.8314 H   0  0  0  0  0  0  0  0  0  0  0  0
    3.4066  -12.3389    8.9741 H   0  0  0  0  0  0  0  0  0  0  0  0
    4.2529  -11.2132   10.0590 H   0  0  0  0  0  0  0  0  0  0  0  0
    5.0970   -8.9998    9.1846 H   0  0  0  0  0  0  0  0  0  0  0  0
    6.1391   -9.9703    8.0840 H   0  0  0  0  0  0  0  0  0  0  0  0
    4.0968   -7.8637    7.5546 H   0  0  0  0  0  0  0  0  0  0  0  0
    5.9805   -7.1132    8.1185 H   0  0  0  0  0  0  0  0  0  0  0  0
    6.6740   -6.9258    1.0710 H   0  0  0  0  0  0  0  0  0  0  0  0
    7.1618   -5.5356    2.0133 H   0  0  0  0  0  0  0  0  0  0  0  0
    5.9904   -5.4099    0.7364 H   0  0  0  0  0  0  0  0  0  0  0  0
    2.5993   -3.2473    3.4326 H   0  0  0  0  0  0  0  0  0  0  0  0
    2.2961   -2.5247    1.8564 H   0  0  0  0  0  0  0  0  0  0  0  0
  1  2  1  0
  1 40  1  0
  1 41  1  0
  1 42  1  0
  2 11  1  0
  2  3  1  0
  2 43  1  6
  3  4  2  0
  3 44  1  0
  4 16  1  0
  4  5  1  0
  5  6  1  0
  5 12  1  0
  5 45  1  6
  6  7  1  0
  6 11  1  0
  6 46  1  1
  7  8  1  0
  8  9  1  0
  8 10  2  0
  9 47  1  0
  9 48  1  0
 11 49  1  0
 11 50  1  0
 12 39  1  0
 12 13  1  1
 12 14  1  0
 13 51  1  0
 13 52  1  0
 13 53  1  0
 14 15  1  0
 14 54  1  0
 14 55  1  0
 15 37  1  0
 15 16  1  0
 15 56  1  1
 16 17  1  6
 16 39  1  0
 17 18  1  0
 17 57  1  0
 17 58  1  0
 18 19  1  0
 18 59  1  0
 18 60  1  0
 19 37  1  0
 19 20  1  6
 19 21  1  0
 20 61  1  0
 20 62  1  0
 20 63  1  0
 21 27  1  0
 21 22  1  0
 21 64  1  1
 22 23  1  0
 22 65  1  0
 22 66  1  0
 23 24  1  0
 23 25  1  0
 23 67  1  1
 24 68  1  0
 25 26  1  1
 25 27  1  0
 25 37  1  0
 26 69  1  0
 26 70  1  0
 26 71  1  0
 27 28  1  1
 27 29  1  0
 28 72  1  0
 28 73  1  0
 28 74  1  0
 29 35  1  0
 29 30  1  0
 29 75  1  6
 30 31  1  0
 31 32  1  0
 31 76  1  0
 31 77  1  0
 32 33  1  0
 32 34  1  0
 32 78  1  1
 33 79  1  0
 33 80  1  0
 33 81  1  0
 34 35  1  0
 34 82  1  0
 34 83  1  0
 35 36  1  0
 35 84  1  1
 36 85  1  0
 37 38  1  6
 38 86  1  0
 38 87  1  0
 38 88  1  0
 39 89  1  0
 39 90  1  0
M  END
>  <i_m_ct_stereo_status>  (337) 
1

>  <s_m_source_file>  (337) 
/var/tmp/pbs.5076255.sched01/tmparsu8qf0/123n9qi1oz7.sdf

>  <i_m_source_file_index>  (337) 
20

>  <i_lp_mmshare_version>  (337) 
48012

>  <i_f3d_flags>  (337) 
0

>  <s_epik_input>  (337) 
W0NIM11bQ0BIXShbQ0hdPTEpW0NIMl1bQ0BIXShPQyg9TylbTkgyXSlbQ0BASF0oQzFbQ0BdMjM0KVtDQEBdKFtDSDNdKShbQ0gyXTQpW0NIMl1bQ0BASF0yW0NAXTUoW0NIM10pW0NAXShbQ0gzXSkoW0NIMl1bQ0gyXTMpW0NASF02W0NIMl1bQ0BASF0oW09IXSlbQ0BdNShbQ0gzXSlbQ0BdNihbQ0gzXSlbQ0BASF03T1tDSDJdW0NAQEhdKFtDSDNdKVtDSDJdW0NASF03W09IXQ==

>  <s_epik_cmdline>  (337) 
J2VwaWtfcHl0aG9uJywgJy1waHQnLCAnMi4wJywgJy1waCcsICc3LjAnLCAnLXRuJywgJzgnLCAnLW1hJywgJzIwMCcsICctaW1hZScsICc8aW5maWxlLm1hZT4nLCAnLW9tYWUnLCAnPG91dGZpbGUubWFlPic=

>  <r_lp_tautomer_probability>  (337) 
1

>  <r_epik_Ionization_Penalty>  (337) 
6.90576e-06

>  <r_epik_Ionization_Penalty_Charging>  (337) 
0

>  <r_epik_Ionization_Penalty_Neutral>  (337) 
6.90576e-06

>  <r_epik_State_Penalty>  (337) 
-0

>  <r_epik_Charging_Adjusted_Penalty>  (337) 
0

>  <i_epik_Tot_Q>  (337) 
0

>  <i_epik_Tot_abs_Q>  (337) 
0

>  <s_epik_Chemistry_Notes>  (337) 
This compound has an ester and may undergo hydrolysis at high or low pH.

>  <s_lp_Force_Field>  (337) 
OPLS3e

>  <r_lp_Energy>  (337) 
147.976

>  <b_lp_Chiralities_Consistent>  (337) 
1

>  <s_lp_Variant>  (337) 
104:0-1

>  <s_i_glide_gridfile>  (337) 
pfpi4k_grid

>  <i_i_glide_lignum>  (337) 
20

>  <i_i_glide_rotatable_bonds>  (337) 
5

>  <r_i_docking_score>  (337) 
-3.3972

>  <r_i_glide_ligand_efficiency>  (337) 
-0.0871078

>  <r_i_glide_ligand_efficiency_sa>  (337) 
-0.295401

>  <r_i_glide_ligand_efficiency_ln>  (337) 
-0.728457

>  <r_i_glide_gscore>  (337) 
-3.3972

>  <r_i_glide_lipo>  (337) 
-0.575591

>  <r_i_glide_hbond>  (337) 
-0.281474

>  <r_i_glide_metal>  (337) 
-0

>  <r_i_glide_rewards>  (337) 
-0.183149

>  <r_i_glide_evdw>  (337) 
-29.6549

>  <r_i_glide_ecoul>  (337) 
-6.1416

>  <r_i_glide_erotb>  (337) 
0.140933

>  <r_i_glide_esite>  (337) 
-0.0939379

>  <r_i_glide_emodel>  (337) 
-37.7909

>  <r_i_glide_energy>  (337) 
-35.7965

>  <r_i_glide_einternal>  (337) 
6.01879

>  <r_i_glide_intrahb_reward>  (337) 
-0

>  <i_i_glide_confnum>  (337) 
2

>  <i_i_glide_posenum>  (337) 
24

>  <r_i_glide_eff_state_penalty>  (337) 
0

>  <ligand_id>  (337) 
104

>  <original_smiles>  (337) 
CC1C=C2C(C(OC(N)=O)C1)C1(C)CC3C2(CCC2(C)C4CC(O)C(C)(C4(C)C4OCC(C)CC4O)C32C)C1

>  <smiles>  (337) 
[H]OC1([H])C([H])([H])C([H])(C([H])([H])[H])C([H])([H])OC1([H])C1(C([H])([H])[H])C2([H])C([H])([H])C([H])(O[H])C1(C([H])([H])[H])C1(C([H])([H])[H])C3([H])C([H])([H])C4(C([H])([H])[H])C([H])([H])C3(C3=C([H])C([H])(C([H])([H])[H])C([H])([H])C([H])(OC(=O)N([H])[H])C34[H])C([H])([H])C([H])([H])C21C([H])([H])[H]

$$$$
104:0:2
     RDKit          3D

 90 96  0  0  1  0  0  0  0  0999 V2000
    4.5762   -3.4135   -3.1736 C   0  0  0  0  0  0  0  0  0  0  0  0
    5.2682   -3.4899   -1.8053 C   0  0  2  0  0  0  0  0  0  0  0  0
    4.4351   -4.2700   -0.7883 C   0  0  0  0  0  0  0  0  0  0  0  0
    4.1704   -3.8310    0.4542 C   0  0  0  0  0  0  0  0  0  0  0  0
    4.6027   -2.4731    0.9032 C   0  0  2  0  0  0  0  0  0  0  0  0
    5.9352   -2.0473    0.2545 C   0  0  1  0  0  0  0  0  0  0  0  0
    6.9807   -2.9579    0.5876 O   0  0  0  0  0  0  0  0  0  0  0  0
    8.2746   -2.7747    0.1912 C   0  0  0  0  0  0  0  0  0  0  0  0
    8.6333   -1.4361    0.2243 N   0  0  0  0  0  0  0  0  0  0  0  0
    9.0046   -3.7233   -0.1004 O   0  0  0  0  0  0  0  0  0  0  0  0
    5.7091   -2.0993   -1.2860 C   0  0  0  0  0  0  0  0  0  0  0  0
    4.3189   -2.5305    2.4246 C   0  0  2  0  0  0  0  0  0  0  0  0
    4.3278   -1.1629    3.1132 C   0  0  0  0  0  0  0  0  0  0  0  0
    5.1675   -3.6169    3.1404 C   0  0  0  0  0  0  0  0  0  0  0  0
    4.4551   -4.9340    2.7632 C   0  0  1  0  0  0  0  0  0  0  0  0
    3.4668   -4.4974    1.6518 C   0  0  2  0  0  0  0  0  0  0  0  0
    2.4405   -5.6030    1.3136 C   0  0  0  0  0  0  0  0  0  0  0  0
    2.6909   -6.9154    2.0757 C   0  0  0  0  0  0  0  0  0  0  0  0
    4.1799   -7.4235    2.0963 C   0  0  2  0  0  0  0  0  0  0  0  0
    4.3866   -7.9480    0.6558 C   0  0  0  0  0  0  0  0  0  0  0  0
    4.4192   -8.5823    3.1577 C   0  0  1  0  0  0  0  0  0  0  0  0
    5.8419   -9.2201    2.9465 C   0  0  0  0  0  0  0  0  0  0  0  0
    6.7723   -8.1895    3.6106 C   0  0  1  0  0  0  0  0  0  0  0  0
    7.9723   -7.9283    2.9044 O   0  0  0  0  0  0  0  0  0  0  0  0
    5.7738   -7.0174    3.9717 C   0  0  2  0  0  0  0  0  0  0  0  0
    6.4455   -6.0154    4.9386 C   0  0  0  0  0  0  0  0  0  0  0  0
    4.5671   -7.9032    4.5836 C   0  0  1  0  0  0  0  0  0  0  0  0
    3.3157   -7.1446    5.1238 C   0  0  0  0  0  0  0  0  0  0  0  0
    4.8840   -8.9642    5.7462 C   0  0  2  0  0  0  0  0  0  0  0  0
    3.8266   -9.9504    5.6644 O   0  0  0  0  0  0  0  0  0  0  0  0
    3.9773  -11.0417    6.5792 C   0  0  0  0  0  0  0  0  0  0  0  0
    3.9781  -10.5405    8.0373 C   0  0  1  0  0  0  0  0  0  0  0  0
    4.2058  -11.6500    9.0586 C   0  0  0  0  0  0  0  0  0  0  0  0
    5.1024   -9.4855    8.2014 C   0  0  0  0  0  0  0  0  0  0  0  0
    4.9608   -8.4091    7.1995 C   0  0  1  0  0  0  0  0  0  0  0  0
    6.0464   -7.5682    7.4451 O   0  0  0  0  0  0  0  0  0  0  0  0
    5.2080   -6.3186    2.5934 C   0  0  2  0  0  0  0  0  0  0  0  0
    6.3680   -6.0342    1.6027 C   0  0  0  0  0  0  0  0  0  0  0  0
    2.9399   -3.2248    2.3494 C   0  0  0  0  0  0  0  0  0  0  0  0
    4.3834   -4.4078   -3.5818 H   0  0  0  0  0  0  0  0  0  0  0  0
    5.1843   -2.8872   -3.9025 H   0  0  0  0  0  0  0  0  0  0  0  0
    3.6175   -2.8988   -3.1012 H   0  0  0  0  0  0  0  0  0  0  0  0
    6.1692   -4.0836   -1.9435 H   0  0  0  0  0  0  0  0  0  0  0  0
    4.1460   -5.2563   -1.0929 H   0  0  0  0  0  0  0  0  0  0  0  0
    3.8694   -1.7680    0.4973 H   0  0  0  0  0  0  0  0  0  0  0  0
    6.1726   -1.0320    0.5670 H   0  0  0  0  0  0  0  0  0  0  0  0
    7.9876   -0.7900    0.6083 H   0  0  0  0  0  0  0  0  0  0  0  0
    9.5788   -1.2181   -0.0936 H   0  0  0  0  0  0  0  0  0  0  0  0
    6.5988   -1.7902   -1.8231 H   0  0  0  0  0  0  0  0  0  0  0  0
    4.9462   -1.3733   -1.5437 H   0  0  0  0  0  0  0  0  0  0  0  0
    3.9985   -1.2514    4.1479 H   0  0  0  0  0  0  0  0  0  0  0  0
    3.6568   -0.4650    2.6110 H   0  0  0  0  0  0  0  0  0  0  0  0
    5.3274   -0.7257    3.1160 H   0  0  0  0  0  0  0  0  0  0  0  0
    6.2145   -3.5987    2.8290 H   0  0  0  0  0  0  0  0  0  0  0  0
    5.1594   -3.4587    4.2193 H   0  0  0  0  0  0  0  0  0  0  0  0
    3.8112   -5.0528    3.5976 H   0  0  0  0  0  0  0  0  0  0  0  0
    1.4451   -5.2479    1.5756 H   0  0  0  0  0  0  0  0  0  0  0  0
    2.4034   -5.8077    0.2465 H   0  0  0  0  0  0  0  0  0  0  0  0
    2.2864   -6.6864    3.0408 H   0  0  0  0  0  0  0  0  0  0  0  0
    2.0280   -7.7046    1.7246 H   0  0  0  0  0  0  0  0  0  0  0  0
    5.3812   -8.2915    0.4184 H   0  0  0  0  0  0  0  0  0  0  0  0
    4.1657   -7.1796   -0.0731 H   0  0  0  0  0  0  0  0  0  0  0  0
    3.7250   -8.7907    0.4701 H   0  0  0  0  0  0  0  0  0  0  0  0
    3.6399   -9.3444    3.1163 H   0  0  0  0  0  0  0  0  0  0  0  0
    5.9295  -10.1910    3.4415 H   0  0  0  0  0  0  0  0  0  0  0  0
    6.1075   -9.4383    1.9190 H   0  0  0  0  0  0  0  0  0  0  0  0
    7.2093   -8.5831    4.5287 H   0  0  0  0  0  0  0  0  0  0  0  0
    8.4837   -8.7148    2.8240 H   0  0  0  0  0  0  0  0  0  0  0  0
    5.6901   -5.3930    5.4199 H   0  0  0  0  0  0  0  0  0  0  0  0
    7.1853   -5.4017    4.4455 H   0  0  0  0  0  0  0  0  0  0  0  0
    7.0058   -6.5440    5.6996 H   0  0  0  0  0  0  0  0  0  0  0  0
    3.0899   -7.2198    6.1719 H   0  0  0  0  0  0  0  0  0  0  0  0
    2.3686   -7.5609    4.7734 H   0  0  0  0  0  0  0  0  0  0  0  0
    3.4148   -6.0580    5.1443 H   0  0  0  0  0  0  0  0  0  0  0  0
    5.7589   -9.5766    5.5411 H   0  0  0  0  0  0  0  0  0  0  0  0
    3.1675  -11.7556    6.4545 H   0  0  0  0  0  0  0  0  0  0  0  0
    4.9022  -11.5862    6.3717 H   0  0  0  0  0  0  0  0  0  0  0  0
    3.0188  -10.0542    8.2318 H   0  0  0  0  0  0  0  0  0  0  0  0
    5.1671  -12.1251    8.8724 H   0  0  0  0  0  0  0  0  0  0  0  0
    3.4132  -12.3838    8.9725 H   0  0  0  0  0  0  0  0  0  0  0  0
    4.2093  -11.2350   10.0666 H   0  0  0  0  0  0  0  0  0  0  0  0
    5.0125   -9.0114    9.1901 H   0  0  0  0  0  0  0  0  0  0  0  0
    6.1077   -9.9635    8.1339 H   0  0  0  0  0  0  0  0  0  0  0  0
    4.0418   -7.9199    7.5603 H   0  0  0  0  0  0  0  0  0  0  0  0
    6.7519   -7.8808    6.9719 H   0  0  0  0  0  0  0  0  0  0  0  0
    6.7876   -6.9197    1.1416 H   0  0  0  0  0  0  0  0  0  0  0  0
    7.1864   -5.5102    2.0959 H   0  0  0  0  0  0  0  0  0  0  0  0
    6.0610   -5.4322    0.7729 H   0  0  0  0  0  0  0  0  0  0  0  0
    2.4905   -3.3863    3.3216 H   0  0  0  0  0  0  0  0  0  0  0  0
    2.2201   -2.6822    1.7320 H   0  0  0  0  0  0  0  0  0  0  0  0
  1  2  1  0
  1 40  1  0
  1 41  1  0
  1 42  1  0
  2 11  1  0
  2  3  1  0
  2 43  1  6
  3  4  2  0
  3 44  1  0
  4 16  1  0
  4  5  1  0
  5  6  1  0
  5 12  1  0
  5 45  1  6
  6  7  1  0
  6 11  1  0
  6 46  1  1
  7  8  1  0
  8  9  1  0
  8 10  2  0
  9 47  1  0
  9 48  1  0
 11 49  1  0
 11 50  1  0
 12 39  1  0
 12 13  1  1
 12 14  1  0
 13 51  1  0
 13 52  1  0
 13 53  1  0
 14 15  1  0
 14 54  1  0
 14 55  1  0
 15 37  1  0
 15 16  1  0
 15 56  1  1
 16 17  1  6
 16 39  1  0
 17 18  1  0
 17 57  1  0
 17 58  1  0
 18 19  1  0
 18 59  1  0
 18 60  1  0
 19 37  1  0
 19 20  1  6
 19 21  1  0
 20 61  1  0
 20 62  1  0
 20 63  1  0
 21 27  1  0
 21 22  1  0
 21 64  1  1
 22 23  1  0
 22 65  1  0
 22 66  1  0
 23 24  1  0
 23 25  1  0
 23 67  1  1
 24 68  1  0
 25 26  1  1
 25 27  1  0
 25 37  1  0
 26 69  1  0
 26 70  1  0
 26 71  1  0
 27 28  1  1
 27 29  1  0
 28 72  1  0
 28 73  1  0
 28 74  1  0
 29 35  1  0
 29 30  1  0
 29 75  1  6
 30 31  1  0
 31 32  1  0
 31 76  1  0
 31 77  1  0
 32 33  1  0
 32 34  1  0
 32 78  1  1
 33 79  1  0
 33 80  1  0
 33 81  1  0
 34 35  1  0
 34 82  1  0
 34 83  1  0
 35 36  1  0
 35 84  1  1
 36 85  1  0
 37 38  1  6
 38 86  1  0
 38 87  1  0
 38 88  1  0
 39 89  1  0
 39 90  1  0
M  END
>  <i_m_ct_stereo_status>  (338) 
1

>  <s_m_source_file>  (338) 
/var/tmp/pbs.5076255.sched01/tmparsu8qf0/123n9qi1oz7.sdf

>  <i_m_source_file_index>  (338) 
20

>  <i_lp_mmshare_version>  (338) 
48012

>  <i_f3d_flags>  (338) 
0

>  <s_epik_input>  (338) 
W0NIM11bQ0BIXShbQ0hdPTEpW0NIMl1bQ0BIXShPQyg9TylbTkgyXSlbQ0BASF0oQzFbQ0BdMjM0KVtDQEBdKFtDSDNdKShbQ0gyXTQpW0NIMl1bQ0BASF0yW0NAXTUoW0NIM10pW0NAXShbQ0gzXSkoW0NIMl1bQ0gyXTMpW0NASF02W0NIMl1bQ0BASF0oW09IXSlbQ0BdNShbQ0gzXSlbQ0BdNihbQ0gzXSlbQ0BASF03T1tDSDJdW0NAQEhdKFtDSDNdKVtDSDJdW0NASF03W09IXQ==

>  <s_epik_cmdline>  (338) 
J2VwaWtfcHl0aG9uJywgJy1waHQnLCAnMi4wJywgJy1waCcsICc3LjAnLCAnLXRuJywgJzgnLCAnLW1hJywgJzIwMCcsICctaW1hZScsICc8aW5maWxlLm1hZT4nLCAnLW9tYWUnLCAnPG91dGZpbGUubWFlPic=

>  <r_lp_tautomer_probability>  (338) 
1

>  <r_epik_Ionization_Penalty>  (338) 
6.90576e-06

>  <r_epik_Ionization_Penalty_Charging>  (338) 
0

>  <r_epik_Ionization_Penalty_Neutral>  (338) 
6.90576e-06

>  <r_epik_State_Penalty>  (338) 
-0

>  <r_epik_Charging_Adjusted_Penalty>  (338) 
0

>  <i_epik_Tot_Q>  (338) 
0

>  <i_epik_Tot_abs_Q>  (338) 
0

>  <s_epik_Chemistry_Notes>  (338) 
This compound has an ester and may undergo hydrolysis at high or low pH.

>  <s_lp_Force_Field>  (338) 
OPLS3e

>  <r_lp_Energy>  (338) 
147.976

>  <b_lp_Chiralities_Consistent>  (338) 
1

>  <s_lp_Variant>  (338) 
104:0-1

>  <s_i_glide_gridfile>  (338) 
pfpi4k_grid

>  <i_i_glide_lignum>  (338) 
20

>  <i_i_glide_rotatable_bonds>  (338) 
5

>  <r_i_docking_score>  (338) 
-3.33049

>  <r_i_glide_ligand_efficiency>  (338) 
-0.0853971

>  <r_i_glide_ligand_efficiency_sa>  (338) 
-0.2896

>  <r_i_glide_ligand_efficiency_ln>  (338) 
-0.714151

>  <r_i_glide_gscore>  (338) 
-3.33049

>  <r_i_glide_lipo>  (338) 
-0.538723

>  <r_i_glide_hbond>  (338) 
-0.310375

>  <r_i_glide_metal>  (338) 
-0

>  <r_i_glide_rewards>  (338) 
-0.202061

>  <r_i_glide_evdw>  (338) 
-30.6547

>  <r_i_glide_ecoul>  (338) 
-5.32399

>  <r_i_glide_erotb>  (338) 
0.140933

>  <r_i_glide_esite>  (338) 
-0.0889271

>  <r_i_glide_emodel>  (338) 
-37.8788

>  <r_i_glide_energy>  (338) 
-35.9787

>  <r_i_glide_einternal>  (338) 
6.60927

>  <r_i_glide_intrahb_reward>  (338) 
-0

>  <i_i_glide_confnum>  (338) 
2

>  <i_i_glide_posenum>  (338) 
2

>  <r_i_glide_eff_state_penalty>  (338) 
0

>  <ligand_id>  (338) 
104

>  <original_smiles>  (338) 
CC1C=C2C(C(OC(N)=O)C1)C1(C)CC3C2(CCC2(C)C4CC(O)C(C)(C4(C)C4OCC(C)CC4O)C32C)C1

>  <smiles>  (338) 
[H]OC1([H])C([H])([H])C([H])(C([H])([H])[H])C([H])([H])OC1([H])C1(C([H])([H])[H])C2([H])C([H])([H])C([H])(O[H])C1(C([H])([H])[H])C1(C([H])([H])[H])C3([H])C([H])([H])C4(C([H])([H])[H])C([H])([H])C3(C3=C([H])C([H])(C([H])([H])[H])C([H])([H])C([H])(OC(=O)N([H])[H])C34[H])C([H])([H])C([H])([H])C21C([H])([H])[H]

$$$$
105:0:0
     RDKit          3D

 65 71  0  0  1  0  0  0  0  0999 V2000
    0.8696  -11.8077    3.9018 C   0  0  0  0  0  0  0  0  0  0  0  0
    1.6708  -10.5621    3.8731 N   0  0  1  0  0  0  0  0  0  0  0  0
    3.1315  -10.8443    3.7881 C   0  0  0  0  0  0  0  0  0  0  0  0
    3.9780   -9.5945    3.4999 C   0  0  1  0  0  0  0  0  0  0  0  0
    3.5433   -9.1492    2.0864 C   0  0  0  0  0  0  0  0  0  0  0  0
    2.0349   -8.8480    1.9342 C   0  0  2  0  0  0  0  0  0  0  0  0
    1.7058   -7.3671    1.6122 C   0  0  1  0  0  0  0  0  0  0  0  0
    0.4464   -7.2894    0.9544 O   0  0  0  0  0  0  0  0  0  0  0  0
    1.6500   -6.4211    2.8414 C   0  0  1  0  0  0  0  0  0  0  0  0
    0.7800   -7.0044    4.0068 C   0  0  1  0  0  0  0  0  0  0  0  0
    0.2627   -8.4732    3.8407 C   0  0  0  0  0  0  0  0  0  0  0  0
    1.0908   -9.4882    2.9947 C   0  0  2  0  0  0  0  0  0  0  0  0
    1.2791   -6.6773    5.4143 C   0  0  0  0  0  0  0  0  0  0  0  0
    0.7627   -5.5654    6.1161 C   0  0  0  0  0  0  0  0  0  0  0  0
    1.2528   -5.2465    7.3962 C   0  0  0  0  0  0  0  0  0  0  0  0
    2.2559   -6.0376    7.9843 C   0  0  0  0  0  0  0  0  0  0  0  0
    2.7702   -7.1538    7.2951 C   0  0  0  0  0  0  0  0  0  0  0  0
    3.7179   -7.9322    7.8879 O   0  0  0  0  0  0  0  0  0  0  0  0
    2.2871   -7.4619    6.0059 C   0  0  0  0  0  0  0  0  0  0  0  0
    2.7273   -8.5466    5.2967 O   0  0  0  0  0  0  0  0  0  0  0  0
    4.0258   -8.5762    4.6992 C   0  0  2  0  0  0  0  0  0  0  0  0
    4.5697   -7.1735    4.3509 C   0  0  0  0  0  0  0  0  0  0  0  0
    5.3782   -6.6054    5.0846 O   0  0  0  0  0  0  0  0  0  0  0  0
    4.0798   -6.6630    3.2213 O   0  0  0  0  0  0  0  0  0  0  0  0
    3.0120   -5.7341    3.2104 C   0  0  1  0  0  0  0  0  0  0  0  0
    3.3272   -4.5595    2.2830 C   0  0  0  0  0  0  0  0  0  0  0  0
    2.9913   -3.2519    2.6899 C   0  0  0  0  0  0  0  0  0  0  0  0
    3.2568   -2.1518    1.8490 C   0  0  0  0  0  0  0  0  0  0  0  0
    3.8546   -2.3514    0.5889 C   0  0  0  0  0  0  0  0  0  0  0  0
    4.1216   -1.2544   -0.2557 C   0  0  0  0  0  0  0  0  0  0  0  0
    4.7101   -1.4563   -1.5188 C   0  0  0  0  0  0  0  0  0  0  0  0
    5.0406   -2.7602   -1.9416 C   0  0  0  0  0  0  0  0  0  0  0  0
    4.7793   -3.8591   -1.0987 C   0  0  0  0  0  0  0  0  0  0  0  0
    4.1897   -3.6612    0.1678 C   0  0  0  0  0  0  0  0  0  0  0  0
    3.9312   -4.7573    1.0185 C   0  0  0  0  0  0  0  0  0  0  0  0
    0.8982  -12.3108    2.9332 H   0  0  0  0  0  0  0  0  0  0  0  0
   -0.1690  -11.5856    4.1438 H   0  0  0  0  0  0  0  0  0  0  0  0
    1.2491  -12.4919    4.6638 H   0  0  0  0  0  0  0  0  0  0  0  0
    3.4524  -11.3016    4.7251 H   0  0  0  0  0  0  0  0  0  0  0  0
    3.3118  -11.5849    3.0065 H   0  0  0  0  0  0  0  0  0  0  0  0
    5.0106   -9.9302    3.3886 H   0  0  0  0  0  0  0  0  0  0  0  0
    4.1710   -8.3644    1.6687 H   0  0  0  0  0  0  0  0  0  0  0  0
    3.7758   -9.9820    1.4171 H   0  0  0  0  0  0  0  0  0  0  0  0
    1.8171   -9.3719    1.0030 H   0  0  0  0  0  0  0  0  0  0  0  0
    2.4319   -7.0085    0.8836 H   0  0  0  0  0  0  0  0  0  0  0  0
    0.3041   -8.0940    0.4640 H   0  0  0  0  0  0  0  0  0  0  0  0
    1.0641   -5.5608    2.5160 H   0  0  0  0  0  0  0  0  0  0  0  0
   -0.1511   -6.4378    3.9499 H   0  0  0  0  0  0  0  0  0  0  0  0
    0.0211   -8.8959    4.8182 H   0  0  0  0  0  0  0  0  0  0  0  0
   -0.7131   -8.4144    3.3552 H   0  0  0  0  0  0  0  0  0  0  0  0
    0.3403   -9.9972    2.3870 H   0  0  0  0  0  0  0  0  0  0  0  0
   -0.0029   -4.9460    5.6740 H   0  0  0  0  0  0  0  0  0  0  0  0
    0.8640   -4.3927    7.9276 H   0  0  0  0  0  0  0  0  0  0  0  0
    2.6279   -5.7946    8.9686 H   0  0  0  0  0  0  0  0  0  0  0  0
    3.9311   -8.7014    7.3830 H   0  0  0  0  0  0  0  0  0  0  0  0
    4.6897   -8.9965    5.4580 H   0  0  0  0  0  0  0  0  0  0  0  0
    2.9327   -5.2861    4.2011 H   0  0  0  0  0  0  0  0  0  0  0  0
    2.5343   -3.0825    3.6557 H   0  0  0  0  0  0  0  0  0  0  0  0
    2.9995   -1.1547    2.1768 H   0  0  0  0  0  0  0  0  0  0  0  0
    3.8631   -0.2558    0.0616 H   0  0  0  0  0  0  0  0  0  0  0  0
    4.8947   -0.6083   -2.1650 H   0  0  0  0  0  0  0  0  0  0  0  0
    5.4873   -2.9202   -2.9142 H   0  0  0  0  0  0  0  0  0  0  0  0
    5.0221   -4.8568   -1.4359 H   0  0  0  0  0  0  0  0  0  0  0  0
    4.2063   -5.7474    0.6912 H   0  0  0  0  0  0  0  0  0  0  0  0
    1.5764  -10.1676    4.8009 H   0  0  0  0  0  0  0  0  0  0  0  0
  1  2  1  0
  1 36  1  0
  1 37  1  0
  1 38  1  0
  2 12  1  0
  2  3  1  0
  2 65  1  1
  3  4  1  0
  3 39  1  0
  3 40  1  0
  4 21  1  0
  4  5  1  0
  4 41  1  6
  5  6  1  0
  5 42  1  0
  5 43  1  0
  6 12  1  0
  6  7  1  0
  6 44  1  6
  7  8  1  0
  7  9  1  0
  7 45  1  6
  8 46  1  0
  9 25  1  0
  9 10  1  0
  9 47  1  6
 10 11  1  0
 10 13  1  0
 10 48  1  1
 11 12  1  0
 11 49  1  0
 11 50  1  0
 12 51  1  6
 13 19  2  0
 13 14  1  0
 14 15  2  0
 14 52  1  0
 15 16  1  0
 15 53  1  0
 16 17  2  0
 16 54  1  0
 17 18  1  0
 17 19  1  0
 18 55  1  0
 19 20  1  0
 20 21  1  0
 21 22  1  0
 21 56  1  1
 22 23  2  0
 22 24  1  0
 24 25  1  0
 25 26  1  0
 25 57  1  1
 26 35  1  0
 26 27  2  0
 27 28  1  0
 27 58  1  0
 28 29  2  0
 28 59  1  0
 29 34  1  0
 29 30  1  0
 30 31  2  0
 30 60  1  0
 31 32  1  0
 31 61  1  0
 32 33  2  0
 32 62  1  0
 33 34  1  0
 33 63  1  0
 34 35  2  0
 35 64  1  0
M  CHG  1   2   1
M  END
>  <i_m_ct_stereo_status>  (339) 
1

>  <s_m_source_file>  (339) 
/var/tmp/pbs.5076255.sched01/tmparsu8qf0/123n9qi1oz7.sdf

>  <i_m_source_file_index>  (339) 
21

>  <i_lp_mmshare_version>  (339) 
48012

>  <i_f3d_flags>  (339) 
0

>  <s_epik_input>  (339) 
W09IXWMxW2NIXVtjSF1bY0hdYyhjMU9bQ0BIXTJbQ0BASF0zNClbQ0BIXTVbQ0BIXShbQ0BIXShbT0hdKVtDQEBIXShbQ0gyXTQpW0NASF0oW0NIMl01KU4oW0NIM10pW0NIMl0zKVtDQEBIXShPQzI9TyljKFtjSF1bY0hdNilbY0hdYyhjNjcpW2NIXVtjSF1bY0hdW2NIXTc=

>  <s_epik_cmdline>  (339) 
J2VwaWtfcHl0aG9uJywgJy1waHQnLCAnMi4wJywgJy1waCcsICc3LjAnLCAnLXRuJywgJzgnLCAnLW1hJywgJzIwMCcsICctaW1hZScsICc8aW5maWxlLm1hZT4nLCAnLW9tYWUnLCAnPG91dGZpbGUubWFlPic=

>  <r_lp_tautomer_probability>  (339) 
1

>  <r_epik_Ionization_Penalty>  (339) 
0.0443943

>  <r_epik_Ionization_Penalty_Charging>  (339) 
0.0412451

>  <r_epik_Ionization_Penalty_Neutral>  (339) 
0.00314919

>  <r_epik_State_Penalty>  (339) 
0.0347664

>  <r_epik_Charging_Adjusted_Penalty>  (339) 
0.0760116

>  <i_epik_Tot_Q>  (339) 
1

>  <i_epik_Tot_abs_Q>  (339) 
1

>  <s_epik_Chemistry_Notes>  (339) 
This compound has an ester and may undergo hydrolysis at high or low pH.

>  <s_lp_Force_Field>  (339) 
OPLS3e

>  <r_lp_Energy>  (339) 
117.046

>  <b_lp_Chiralities_Consistent>  (339) 
1

>  <s_lp_Variant>  (339) 
105:0-1

>  <s_i_glide_gridfile>  (339) 
pfpi4k_grid

>  <i_i_glide_lignum>  (339) 
21

>  <i_i_glide_rotatable_bonds>  (339) 
3

>  <r_i_docking_score>  (339) 
-3.10536

>  <r_i_glide_ligand_efficiency>  (339) 
-0.0887245

>  <r_i_glide_ligand_efficiency_sa>  (339) 
-0.290224

>  <r_i_glide_ligand_efficiency_ln>  (339) 
-0.681695

>  <r_i_glide_gscore>  (339) 
-3.10536

>  <r_i_glide_lipo>  (339) 
-0.13131

>  <r_i_glide_hbond>  (339) 
-0.32

>  <r_i_glide_metal>  (339) 
-0

>  <r_i_glide_rewards>  (339) 
-0.187144

>  <r_i_glide_evdw>  (339) 
-27.645

>  <r_i_glide_ecoul>  (339) 
-7.8347

>  <r_i_glide_erotb>  (339) 
0.0905527

>  <r_i_glide_esite>  (339) 
0

>  <r_i_glide_emodel>  (339) 
-43.7871

>  <r_i_glide_energy>  (339) 
-35.4797

>  <r_i_glide_einternal>  (339) 
1.21351

>  <r_i_glide_intrahb_reward>  (339) 
-0

>  <i_i_glide_confnum>  (339) 
3

>  <i_i_glide_posenum>  (339) 
10

>  <r_i_glide_eff_state_penalty>  (339) 
0

>  <ligand_id>  (339) 
105

>  <original_smiles>  (339) 
CN1CC2CC3C(O)C4C(CC31)c1cccc(O)c1OC2C(=O)OC4c1ccc2ccccc2c1

>  <smiles>  (339) 
[H]Oc1c([H])c([H])c([H])c2c1OC1([H])C(=O)OC([H])(c3c([H])c([H])c4c([H])c([H])c([H])c([H])c4c3[H])C3([H])C([H])(O[H])C4([H])C([H])([H])C1([H])C([H])([H])[N+]([H])(C([H])([H])[H])C4([H])C([H])([H])C23[H]

$$$$
105:0:1
     RDKit          3D

 65 71  0  0  1  0  0  0  0  0999 V2000
    0.8471  -11.8910    4.2127 C   0  0  0  0  0  0  0  0  0  0  0  0
    1.4431  -10.5522    4.4205 N   0  0  1  0  0  0  0  0  0  0  0  0
    2.9060  -10.5538    4.1429 C   0  0  0  0  0  0  0  0  0  0  0  0
    3.5178   -9.1463    4.0957 C   0  0  1  0  0  0  0  0  0  0  0  0
    2.8481   -8.4741    2.8725 C   0  0  0  0  0  0  0  0  0  0  0  0
    1.3020   -8.4052    2.9255 C   0  0  2  0  0  0  0  0  0  0  0  0
    0.7333   -6.9598    3.0119 C   0  0  1  0  0  0  0  0  0  0  0  0
   -0.5786   -6.9212    2.4545 O   0  0  0  0  0  0  0  0  0  0  0  0
    0.6869   -6.3592    4.4413 C   0  0  1  0  0  0  0  0  0  0  0  0
    0.0682   -7.3284    5.4979 C   0  0  1  0  0  0  0  0  0  0  0  0
   -0.2473   -8.7838    5.0216 C   0  0  0  0  0  0  0  0  0  0  0  0
    0.6065   -9.4231    3.8841 C   0  0  2  0  0  0  0  0  0  0  0  0
    0.6884   -7.2482    6.8937 C   0  0  0  0  0  0  0  0  0  0  0  0
    0.1140   -6.4247    7.8875 C   0  0  0  0  0  0  0  0  0  0  0  0
    0.7041   -6.3309    9.1610 C   0  0  0  0  0  0  0  0  0  0  0  0
    1.8749   -7.0551    9.4479 C   0  0  0  0  0  0  0  0  0  0  0  0
    2.4538   -7.8822    8.4648 C   0  0  0  0  0  0  0  0  0  0  0  0
    3.5699   -8.6035    8.7632 O   0  0  0  0  0  0  0  0  0  0  0  0
    1.8625   -7.9672    7.1865 C   0  0  0  0  0  0  0  0  0  0  0  0
    2.3639   -8.7693    6.1973 O   0  0  0  0  0  0  0  0  0  0  0  0
    3.5697   -8.4395    5.5033 C   0  0  2  0  0  0  0  0  0  0  0  0
    3.8495   -6.9225    5.4654 C   0  0  0  0  0  0  0  0  0  0  0  0
    4.6546   -6.4011    6.2366 O   0  0  0  0  0  0  0  0  0  0  0  0
    3.1441   -6.2701    4.5462 O   0  0  0  0  0  0  0  0  0  0  0  0
    1.9668   -5.5463    4.8521 C   0  0  1  0  0  0  0  0  0  0  0  0
    1.9856   -4.1593    4.2062 C   0  0  0  0  0  0  0  0  0  0  0  0
    1.0791   -3.1793    4.6625 C   0  0  0  0  0  0  0  0  0  0  0  0
    1.0550   -1.8968    4.0806 C   0  0  0  0  0  0  0  0  0  0  0  0
    1.9484   -1.5775    3.0406 C   0  0  0  0  0  0  0  0  0  0  0  0
    1.9352   -0.2920    2.4621 C   0  0  0  0  0  0  0  0  0  0  0  0
    2.8348    0.0228    1.4269 C   0  0  0  0  0  0  0  0  0  0  0  0
    3.7464   -0.9428    0.9593 C   0  0  0  0  0  0  0  0  0  0  0  0
    3.7635   -2.2298    1.5347 C   0  0  0  0  0  0  0  0  0  0  0  0
    2.8668   -2.5519    2.5754 C   0  0  0  0  0  0  0  0  0  0  0  0
    2.8787   -3.8378    3.1555 C   0  0  0  0  0  0  0  0  0  0  0  0
    0.8324  -12.1653    3.1538 H   0  0  0  0  0  0  0  0  0  0  0  0
   -0.1740  -11.9265    4.5922 H   0  0  0  0  0  0  0  0  0  0  0  0
    1.4228  -12.6466    4.7540 H   0  0  0  0  0  0  0  0  0  0  0  0
    3.4070  -11.1492    4.9071 H   0  0  0  0  0  0  0  0  0  0  0  0
    3.0944  -11.0558    3.1920 H   0  0  0  0  0  0  0  0  0  0  0  0
    4.5670   -9.2632    3.8149 H   0  0  0  0  0  0  0  0  0  0  0  0
    3.2969   -7.5179    2.6085 H   0  0  0  0  0  0  0  0  0  0  0  0
    3.1141   -9.0828    2.0032 H   0  0  0  0  0  0  0  0  0  0  0  0
    1.0311   -8.7329    1.9189 H   0  0  0  0  0  0  0  0  0  0  0  0
    1.3233   -6.3041    2.3678 H   0  0  0  0  0  0  0  0  0  0  0  0
   -1.0745   -7.6616    2.7788 H   0  0  0  0  0  0  0  0  0  0  0  0
   -0.0666   -5.5754    4.3845 H   0  0  0  0  0  0  0  0  0  0  0  0
   -0.9321   -6.9243    5.6569 H   0  0  0  0  0  0  0  0  0  0  0  0
   -0.2975   -9.4537    5.8826 H   0  0  0  0  0  0  0  0  0  0  0  0
   -1.2764   -8.7873    4.6585 H   0  0  0  0  0  0  0  0  0  0  0  0
   -0.1330   -9.9072    3.2433 H   0  0  0  0  0  0  0  0  0  0  0  0
   -0.7844   -5.8627    7.6797 H   0  0  0  0  0  0  0  0  0  0  0  0
    0.2633   -5.7013    9.9179 H   0  0  0  0  0  0  0  0  0  0  0  0
    2.3272   -6.9837   10.4258 H   0  0  0  0  0  0  0  0  0  0  0  0
    3.7963   -9.2234    8.0875 H   0  0  0  0  0  0  0  0  0  0  0  0
    4.3789   -8.9013    6.0741 H   0  0  0  0  0  0  0  0  0  0  0  0
    1.9483   -5.3397    5.9220 H   0  0  0  0  0  0  0  0  0  0  0  0
    0.3904   -3.4121    5.4632 H   0  0  0  0  0  0  0  0  0  0  0  0
    0.3526   -1.1584    4.4394 H   0  0  0  0  0  0  0  0  0  0  0  0
    1.2347    0.4567    2.8010 H   0  0  0  0  0  0  0  0  0  0  0  0
    2.8093    1.0056    0.9775 H   0  0  0  0  0  0  0  0  0  0  0  0
    4.4227   -0.6963    0.1513 H   0  0  0  0  0  0  0  0  0  0  0  0
    4.4653   -2.9645    1.1683 H   0  0  0  0  0  0  0  0  0  0  0  0
    3.5845   -4.5676    2.7884 H   0  0  0  0  0  0  0  0  0  0  0  0
    1.4065  -10.4113    5.4224 H   0  0  0  0  0  0  0  0  0  0  0  0
  1  2  1  0
  1 36  1  0
  1 37  1  0
  1 38  1  0
  2 12  1  0
  2  3  1  0
  2 65  1  1
  3  4  1  0
  3 39  1  0
  3 40  1  0
  4 21  1  0
  4  5  1  0
  4 41  1  6
  5  6  1  0
  5 42  1  0
  5 43  1  0
  6 12  1  0
  6  7  1  0
  6 44  1  6
  7  8  1  0
  7  9  1  0
  7 45  1  6
  8 46  1  0
  9 25  1  0
  9 10  1  0
  9 47  1  6
 10 11  1  0
 10 13  1  0
 10 48  1  1
 11 12  1  0
 11 49  1  0
 11 50  1  0
 12 51  1  6
 13 19  2  0
 13 14  1  0
 14 15  2  0
 14 52  1  0
 15 16  1  0
 15 53  1  0
 16 17  2  0
 16 54  1  0
 17 18  1  0
 17 19  1  0
 18 55  1  0
 19 20  1  0
 20 21  1  0
 21 22  1  0
 21 56  1  1
 22 23  2  0
 22 24  1  0
 24 25  1  0
 25 26  1  0
 25 57  1  1
 26 35  1  0
 26 27  2  0
 27 28  1  0
 27 58  1  0
 28 29  2  0
 28 59  1  0
 29 34  1  0
 29 30  1  0
 30 31  2  0
 30 60  1  0
 31 32  1  0
 31 61  1  0
 32 33  2  0
 32 62  1  0
 33 34  1  0
 33 63  1  0
 34 35  2  0
 35 64  1  0
M  CHG  1   2   1
M  END
>  <i_m_ct_stereo_status>  (340) 
1

>  <s_m_source_file>  (340) 
/var/tmp/pbs.5076255.sched01/tmparsu8qf0/123n9qi1oz7.sdf

>  <i_m_source_file_index>  (340) 
21

>  <i_lp_mmshare_version>  (340) 
48012

>  <i_f3d_flags>  (340) 
0

>  <s_epik_input>  (340) 
W09IXWMxW2NIXVtjSF1bY0hdYyhjMU9bQ0BIXTJbQ0BASF0zNClbQ0BIXTVbQ0BIXShbQ0BIXShbT0hdKVtDQEBIXShbQ0gyXTQpW0NASF0oW0NIMl01KU4oW0NIM10pW0NIMl0zKVtDQEBIXShPQzI9TyljKFtjSF1bY0hdNilbY0hdYyhjNjcpW2NIXVtjSF1bY0hdW2NIXTc=

>  <s_epik_cmdline>  (340) 
J2VwaWtfcHl0aG9uJywgJy1waHQnLCAnMi4wJywgJy1waCcsICc3LjAnLCAnLXRuJywgJzgnLCAnLW1hJywgJzIwMCcsICctaW1hZScsICc8aW5maWxlLm1hZT4nLCAnLW9tYWUnLCAnPG91dGZpbGUubWFlPic=

>  <r_lp_tautomer_probability>  (340) 
1

>  <r_epik_Ionization_Penalty>  (340) 
0.0443943

>  <r_epik_Ionization_Penalty_Charging>  (340) 
0.0412451

>  <r_epik_Ionization_Penalty_Neutral>  (340) 
0.00314919

>  <r_epik_State_Penalty>  (340) 
0.0347664

>  <r_epik_Charging_Adjusted_Penalty>  (340) 
0.0760116

>  <i_epik_Tot_Q>  (340) 
1

>  <i_epik_Tot_abs_Q>  (340) 
1

>  <s_epik_Chemistry_Notes>  (340) 
This compound has an ester and may undergo hydrolysis at high or low pH.

>  <s_lp_Force_Field>  (340) 
OPLS3e

>  <r_lp_Energy>  (340) 
117.046

>  <b_lp_Chiralities_Consistent>  (340) 
1

>  <s_lp_Variant>  (340) 
105:0-1

>  <s_i_glide_gridfile>  (340) 
pfpi4k_grid

>  <i_i_glide_lignum>  (340) 
21

>  <i_i_glide_rotatable_bonds>  (340) 
3

>  <r_i_docking_score>  (340) 
-2.35775

>  <r_i_glide_ligand_efficiency>  (340) 
-0.0673642

>  <r_i_glide_ligand_efficiency_sa>  (340) 
-0.220353

>  <r_i_glide_ligand_efficiency_ln>  (340) 
-0.517578

>  <r_i_glide_gscore>  (340) 
-2.35775

>  <r_i_glide_lipo>  (340) 
-0.0243127

>  <r_i_glide_hbond>  (340) 
-0.16

>  <r_i_glide_metal>  (340) 
-0

>  <r_i_glide_rewards>  (340) 
-0.187144

>  <r_i_glide_evdw>  (340) 
-23.7366

>  <r_i_glide_ecoul>  (340) 
-5.79482

>  <r_i_glide_erotb>  (340) 
0.0905527

>  <r_i_glide_esite>  (340) 
-0.0207916

>  <r_i_glide_emodel>  (340) 
-35.8211

>  <r_i_glide_energy>  (340) 
-29.5314

>  <r_i_glide_einternal>  (340) 
0.784726

>  <r_i_glide_intrahb_reward>  (340) 
-0

>  <i_i_glide_confnum>  (340) 
3

>  <i_i_glide_posenum>  (340) 
27

>  <r_i_glide_eff_state_penalty>  (340) 
0

>  <ligand_id>  (340) 
105

>  <original_smiles>  (340) 
CN1CC2CC3C(O)C4C(CC31)c1cccc(O)c1OC2C(=O)OC4c1ccc2ccccc2c1

>  <smiles>  (340) 
[H]Oc1c([H])c([H])c([H])c2c1OC1([H])C(=O)OC([H])(c3c([H])c([H])c4c([H])c([H])c([H])c([H])c4c3[H])C3([H])C([H])(O[H])C4([H])C([H])([H])C1([H])C([H])([H])[N+]([H])(C([H])([H])[H])C4([H])C([H])([H])C23[H]

$$$$
105:0:2
     RDKit          3D

 65 71  0  0  1  0  0  0  0  0999 V2000
    0.7700  -11.9617    4.4817 C   0  0  0  0  0  0  0  0  0  0  0  0
    1.7132  -10.8691    4.1483 N   0  0  1  0  0  0  0  0  0  0  0  0
    2.8492  -11.3469    3.3065 C   0  0  0  0  0  0  0  0  0  0  0  0
    3.7028  -10.2068    2.7329 C   0  0  1  0  0  0  0  0  0  0  0  0
    2.7493   -9.4482    1.7834 C   0  0  0  0  0  0  0  0  0  0  0  0
    1.4630   -8.8948    2.4426 C   0  0  2  0  0  0  0  0  0  0  0  0
    1.3702   -7.3440    2.4557 C   0  0  1  0  0  0  0  0  0  0  0  0
    0.0004   -6.9466    2.4773 O   0  0  0  0  0  0  0  0  0  0  0  0
    2.1189   -6.6581    3.6282 C   0  0  1  0  0  0  0  0  0  0  0  0
    1.8181   -7.3084    5.0191 C   0  0  1  0  0  0  0  0  0  0  0  0
    0.9714   -8.6220    5.0172 C   0  0  0  0  0  0  0  0  0  0  0  0
    1.0377   -9.5729    3.7832 C   0  0  2  0  0  0  0  0  0  0  0  0
    2.9980   -7.3256    5.9922 C   0  0  0  0  0  0  0  0  0  0  0  0
    3.1549   -6.2960    6.9493 C   0  0  0  0  0  0  0  0  0  0  0  0
    4.2596   -6.2999    7.8199 C   0  0  0  0  0  0  0  0  0  0  0  0
    5.2141   -7.3310    7.7454 C   0  0  0  0  0  0  0  0  0  0  0  0
    5.0643   -8.3629    6.7984 C   0  0  0  0  0  0  0  0  0  0  0  0
    5.9808   -9.3701    6.7485 O   0  0  0  0  0  0  0  0  0  0  0  0
    3.9611   -8.3512    5.9209 C   0  0  0  0  0  0  0  0  0  0  0  0
    3.7462   -9.3399    4.9984 O   0  0  0  0  0  0  0  0  0  0  0  0
    4.5512   -9.4563    3.8219 C   0  0  2  0  0  0  0  0  0  0  0  0
    5.1567   -8.1102    3.3682 C   0  0  0  0  0  0  0  0  0  0  0  0
    6.3228   -7.8145    3.6202 O   0  0  0  0  0  0  0  0  0  0  0  0
    4.3018   -7.3360    2.7029 O   0  0  0  0  0  0  0  0  0  0  0  0
    3.6076   -6.2591    3.3080 C   0  0  1  0  0  0  0  0  0  0  0  0
    3.6830   -4.9983    2.4450 C   0  0  0  0  0  0  0  0  0  0  0  0
    3.3406   -3.7549    3.0176 C   0  0  0  0  0  0  0  0  0  0  0  0
    3.3786   -2.5756    2.2507 C   0  0  0  0  0  0  0  0  0  0  0  0
    3.7756   -2.6217    0.8981 C   0  0  0  0  0  0  0  0  0  0  0  0
    3.8208   -1.4431    0.1272 C   0  0  0  0  0  0  0  0  0  0  0  0
    4.2170   -1.4945   -1.2255 C   0  0  0  0  0  0  0  0  0  0  0  0
    4.5709   -2.7259   -1.8075 C   0  0  0  0  0  0  0  0  0  0  0  0
    4.5296   -3.9068   -1.0395 C   0  0  0  0  0  0  0  0  0  0  0  0
    4.1289   -3.8644    0.3137 C   0  0  0  0  0  0  0  0  0  0  0  0
    4.0753   -5.0448    1.0839 C   0  0  0  0  0  0  0  0  0  0  0  0
    0.2141  -12.2921    3.6070 H   0  0  0  0  0  0  0  0  0  0  0  0
    0.0714  -11.6424    5.2539 H   0  0  0  0  0  0  0  0  0  0  0  0
    1.3139  -12.8170    4.8805 H   0  0  0  0  0  0  0  0  0  0  0  0
    3.4702  -12.0126    3.9081 H   0  0  0  0  0  0  0  0  0  0  0  0
    2.4675  -11.9566    2.4871 H   0  0  0  0  0  0  0  0  0  0  0  0
    4.4455  -10.6608    2.0799 H   0  0  0  0  0  0  0  0  0  0  0  0
    3.2537   -8.7044    1.1701 H   0  0  0  0  0  0  0  0  0  0  0  0
    2.4394  -10.1664    1.0228 H   0  0  0  0  0  0  0  0  0  0  0  0
    0.6992   -9.1911    1.7221 H   0  0  0  0  0  0  0  0  0  0  0  0
    1.7514   -6.9536    1.5106 H   0  0  0  0  0  0  0  0  0  0  0  0
   -0.4466   -7.4387    3.1514 H   0  0  0  0  0  0  0  0  0  0  0  0
    1.6422   -5.6836    3.7254 H   0  0  0  0  0  0  0  0  0  0  0  0
    1.1344   -6.6044    5.4962 H   0  0  0  0  0  0  0  0  0  0  0  0
    1.1533   -9.1781    5.9389 H   0  0  0  0  0  0  0  0  0  0  0  0
   -0.0737   -8.3305    5.1148 H   0  0  0  0  0  0  0  0  0  0  0  0
   -0.0046   -9.8468    3.6105 H   0  0  0  0  0  0  0  0  0  0  0  0
    2.4325   -5.4961    7.0167 H   0  0  0  0  0  0  0  0  0  0  0  0
    4.3772   -5.5113    8.5477 H   0  0  0  0  0  0  0  0  0  0  0  0
    6.0572   -7.3369    8.4189 H   0  0  0  0  0  0  0  0  0  0  0  0
    5.7622  -10.0311    6.1113 H   0  0  0  0  0  0  0  0  0  0  0  0
    5.3862  -10.1052    4.0947 H   0  0  0  0  0  0  0  0  0  0  0  0
    4.1238   -5.9814    4.2266 H   0  0  0  0  0  0  0  0  0  0  0  0
    3.0376   -3.7032    4.0541 H   0  0  0  0  0  0  0  0  0  0  0  0
    3.1044   -1.6329    2.7022 H   0  0  0  0  0  0  0  0  0  0  0  0
    3.5411   -0.4951    0.5635 H   0  0  0  0  0  0  0  0  0  0  0  0
    4.2353   -0.5878   -1.8131 H   0  0  0  0  0  0  0  0  0  0  0  0
    4.8621   -2.7731   -2.8476 H   0  0  0  0  0  0  0  0  0  0  0  0
    4.7900   -4.8501   -1.4993 H   0  0  0  0  0  0  0  0  0  0  0  0
    4.3436   -5.9834    0.6198 H   0  0  0  0  0  0  0  0  0  0  0  0
    2.1675  -10.6461    5.0269 H   0  0  0  0  0  0  0  0  0  0  0  0
  1  2  1  0
  1 36  1  0
  1 37  1  0
  1 38  1  0
  2 12  1  0
  2  3  1  0
  2 65  1  1
  3  4  1  0
  3 39  1  0
  3 40  1  0
  4 21  1  0
  4  5  1  0
  4 41  1  6
  5  6  1  0
  5 42  1  0
  5 43  1  0
  6 12  1  0
  6  7  1  0
  6 44  1  6
  7  8  1  0
  7  9  1  0
  7 45  1  6
  8 46  1  0
  9 25  1  0
  9 10  1  0
  9 47  1  1
 10 11  1  0
 10 13  1  0
 10 48  1  1
 11 12  1  0
 11 49  1  0
 11 50  1  0
 12 51  1  6
 13 19  2  0
 13 14  1  0
 14 15  2  0
 14 52  1  0
 15 16  1  0
 15 53  1  0
 16 17  2  0
 16 54  1  0
 17 18  1  0
 17 19  1  0
 18 55  1  0
 19 20  1  0
 20 21  1  0
 21 22  1  0
 21 56  1  1
 22 23  2  0
 22 24  1  0
 24 25  1  0
 25 26  1  0
 25 57  1  1
 26 35  1  0
 26 27  2  0
 27 28  1  0
 27 58  1  0
 28 29  2  0
 28 59  1  0
 29 34  1  0
 29 30  1  0
 30 31  2  0
 30 60  1  0
 31 32  1  0
 31 61  1  0
 32 33  2  0
 32 62  1  0
 33 34  1  0
 33 63  1  0
 34 35  2  0
 35 64  1  0
M  CHG  1   2   1
M  END
>  <i_m_ct_stereo_status>  (341) 
1

>  <s_m_source_file>  (341) 
/var/tmp/pbs.5076255.sched01/tmparsu8qf0/123n9qi1oz7.sdf

>  <i_m_source_file_index>  (341) 
21

>  <i_lp_mmshare_version>  (341) 
48012

>  <i_f3d_flags>  (341) 
0

>  <s_epik_input>  (341) 
W09IXWMxW2NIXVtjSF1bY0hdYyhjMU9bQ0BIXTJbQ0BASF0zNClbQ0BIXTVbQ0BIXShbQ0BIXShbT0hdKVtDQEBIXShbQ0gyXTQpW0NASF0oW0NIMl01KU4oW0NIM10pW0NIMl0zKVtDQEBIXShPQzI9TyljKFtjSF1bY0hdNilbY0hdYyhjNjcpW2NIXVtjSF1bY0hdW2NIXTc=

>  <s_epik_cmdline>  (341) 
J2VwaWtfcHl0aG9uJywgJy1waHQnLCAnMi4wJywgJy1waCcsICc3LjAnLCAnLXRuJywgJzgnLCAnLW1hJywgJzIwMCcsICctaW1hZScsICc8aW5maWxlLm1hZT4nLCAnLW9tYWUnLCAnPG91dGZpbGUubWFlPic=

>  <r_lp_tautomer_probability>  (341) 
1

>  <r_epik_Ionization_Penalty>  (341) 
0.0443943

>  <r_epik_Ionization_Penalty_Charging>  (341) 
0.0412451

>  <r_epik_Ionization_Penalty_Neutral>  (341) 
0.00314919

>  <r_epik_State_Penalty>  (341) 
0.0347664

>  <r_epik_Charging_Adjusted_Penalty>  (341) 
0.0760116

>  <i_epik_Tot_Q>  (341) 
1

>  <i_epik_Tot_abs_Q>  (341) 
1

>  <s_epik_Chemistry_Notes>  (341) 
This compound has an ester and may undergo hydrolysis at high or low pH.

>  <s_lp_Force_Field>  (341) 
OPLS3e

>  <r_lp_Energy>  (341) 
117.046

>  <b_lp_Chiralities_Consistent>  (341) 
1

>  <s_lp_Variant>  (341) 
105:0-1

>  <s_i_glide_gridfile>  (341) 
pfpi4k_grid

>  <i_i_glide_lignum>  (341) 
21

>  <i_i_glide_rotatable_bonds>  (341) 
3

>  <r_i_docking_score>  (341) 
-2.302

>  <r_i_glide_ligand_efficiency>  (341) 
-0.0657714

>  <r_i_glide_ligand_efficiency_sa>  (341) 
-0.215142

>  <r_i_glide_ligand_efficiency_ln>  (341) 
-0.505339

>  <r_i_glide_gscore>  (341) 
-2.302

>  <r_i_glide_lipo>  (341) 
-0.0559774

>  <r_i_glide_hbond>  (341) 
-0.0562405

>  <r_i_glide_metal>  (341) 
-0

>  <r_i_glide_rewards>  (341) 
-0.187164

>  <r_i_glide_evdw>  (341) 
-25.3993

>  <r_i_glide_ecoul>  (341) 
-5.48804

>  <r_i_glide_erotb>  (341) 
0.0905527

>  <r_i_glide_esite>  (341) 
0

>  <r_i_glide_emodel>  (341) 
-37.1347

>  <r_i_glide_energy>  (341) 
-30.8873

>  <r_i_glide_einternal>  (341) 
0.656124

>  <r_i_glide_intrahb_reward>  (341) 
-0

>  <i_i_glide_confnum>  (341) 
1

>  <i_i_glide_posenum>  (341) 
1

>  <r_i_glide_eff_state_penalty>  (341) 
0

>  <ligand_id>  (341) 
105

>  <original_smiles>  (341) 
CN1CC2CC3C(O)C4C(CC31)c1cccc(O)c1OC2C(=O)OC4c1ccc2ccccc2c1

>  <smiles>  (341) 
[H]Oc1c([H])c([H])c([H])c2c1OC1([H])C(=O)OC([H])(c3c([H])c([H])c4c([H])c([H])c([H])c([H])c4c3[H])C3([H])C([H])(O[H])C4([H])C([H])([H])C1([H])C([H])([H])[N+]([H])(C([H])([H])[H])C4([H])C([H])([H])C23[H]

$$$$
105:1:0
     RDKit          3D

 64 70  0  0  1  0  0  0  0  0999 V2000
    1.1292  -11.5201    3.2487 C   0  0  0  0  0  0  0  0  0  0  0  0
    1.7625  -10.2613    2.8821 N   0  0  0  0  0  0  0  0  0  0  0  0
    3.0704  -10.1133    3.5350 C   0  0  0  0  0  0  0  0  0  0  0  0
    3.6679   -8.6804    3.4431 C   0  0  1  0  0  0  0  0  0  0  0  0
    3.0584   -7.9449    2.2116 C   0  0  0  0  0  0  0  0  0  0  0  0
    1.5117   -7.9439    2.1503 C   0  0  2  0  0  0  0  0  0  0  0  0
    0.8220   -6.5892    2.4069 C   0  0  1  0  0  0  0  0  0  0  0  0
   -0.5142   -6.6596    1.9241 O   0  0  0  0  0  0  0  0  0  0  0  0
    0.7966   -6.1459    3.8909 C   0  0  1  0  0  0  0  0  0  0  0  0
    0.3560   -7.2872    4.8716 C   0  0  1  0  0  0  0  0  0  0  0  0
    0.3339   -8.7682    4.3600 C   0  0  0  0  0  0  0  0  0  0  0  0
    0.8684   -9.1008    2.9388 C   0  0  2  0  0  0  0  0  0  0  0  0
    0.9208   -7.1327    6.2811 C   0  0  0  0  0  0  0  0  0  0  0  0
    0.2163   -6.3547    7.2234 C   0  0  0  0  0  0  0  0  0  0  0  0
    0.7135   -6.1783    8.5273 C   0  0  0  0  0  0  0  0  0  0  0  0
    1.9326   -6.7760    8.9017 C   0  0  0  0  0  0  0  0  0  0  0  0
    2.6462   -7.5510    7.9719 C   0  0  0  0  0  0  0  0  0  0  0  0
    3.8158   -8.1456    8.3442 O   0  0  0  0  0  0  0  0  0  0  0  0
    2.1527   -7.7206    6.6620 C   0  0  0  0  0  0  0  0  0  0  0  0
    2.8385   -8.5269    5.7883 O   0  0  0  0  0  0  0  0  0  0  0  0
    3.7995   -8.0006    4.8571 C   0  0  2  0  0  0  0  0  0  0  0  0
    3.9597   -6.4665    4.9102 C   0  0  0  0  0  0  0  0  0  0  0  0
    4.6975   -5.9275    5.7322 O   0  0  0  0  0  0  0  0  0  0  0  0
    3.2317   -5.8158    4.0133 O   0  0  0  0  0  0  0  0  0  0  0  0
    1.9872   -5.2152    4.3266 C   0  0  1  0  0  0  0  0  0  0  0  0
    1.9041   -3.8277    3.6805 C   0  0  0  0  0  0  0  0  0  0  0  0
    2.6267   -3.5328    2.5012 C   0  0  0  0  0  0  0  0  0  0  0  0
    2.5533   -2.2565    1.9151 C   0  0  0  0  0  0  0  0  0  0  0  0
    1.7516   -1.2572    2.4986 C   0  0  0  0  0  0  0  0  0  0  0  0
    1.6765    0.0211    1.9096 C   0  0  0  0  0  0  0  0  0  0  0  0
    0.8610    1.0175    2.4781 C   0  0  0  0  0  0  0  0  0  0  0  0
    0.1270    0.7373    3.6455 C   0  0  0  0  0  0  0  0  0  0  0  0
    0.2032   -0.5388    4.2434 C   0  0  0  0  0  0  0  0  0  0  0  0
    1.0146   -1.5427    3.6734 C   0  0  0  0  0  0  0  0  0  0  0  0
    1.0905   -2.8264    4.2568 C   0  0  0  0  0  0  0  0  0  0  0  0
    1.8193  -12.3309    3.0203 H   0  0  0  0  0  0  0  0  0  0  0  0
    0.2202  -11.6860    2.6676 H   0  0  0  0  0  0  0  0  0  0  0  0
    0.8815  -11.5697    4.3113 H   0  0  0  0  0  0  0  0  0  0  0  0
    3.0170  -10.4762    4.5628 H   0  0  0  0  0  0  0  0  0  0  0  0
    3.7494  -10.7968    3.0220 H   0  0  0  0  0  0  0  0  0  0  0  0
    4.7123   -8.8137    3.1583 H   0  0  0  0  0  0  0  0  0  0  0  0
    3.4678   -6.9556    2.0312 H   0  0  0  0  0  0  0  0  0  0  0  0
    3.4005   -8.4964    1.3307 H   0  0  0  0  0  0  0  0  0  0  0  0
    1.3045   -8.1645    1.0990 H   0  0  0  0  0  0  0  0  0  0  0  0
    1.3027   -5.8256    1.7938 H   0  0  0  0  0  0  0  0  0  0  0  0
   -0.8323   -7.5433    2.0435 H   0  0  0  0  0  0  0  0  0  0  0  0
   -0.0306   -5.4393    3.9664 H   0  0  0  0  0  0  0  0  0  0  0  0
   -0.7102   -7.0938    4.9991 H   0  0  0  0  0  0  0  0  0  0  0  0
    0.7612   -9.4449    5.0985 H   0  0  0  0  0  0  0  0  0  0  0  0
   -0.7065   -9.0956    4.3585 H   0  0  0  0  0  0  0  0  0  0  0  0
   -0.0030   -9.3957    2.3507 H   0  0  0  0  0  0  0  0  0  0  0  0
   -0.7184   -5.8902    6.9480 H   0  0  0  0  0  0  0  0  0  0  0  0
    0.1608   -5.5928    9.2417 H   0  0  0  0  0  0  0  0  0  0  0  0
    2.3104   -6.6531    9.9022 H   0  0  0  0  0  0  0  0  0  0  0  0
    4.1582   -8.7043    7.6682 H   0  0  0  0  0  0  0  0  0  0  0  0
    4.7449   -8.3751    5.2550 H   0  0  0  0  0  0  0  0  0  0  0  0
    1.9378   -5.0310    5.4008 H   0  0  0  0  0  0  0  0  0  0  0  0
    3.2505   -4.2795    2.0294 H   0  0  0  0  0  0  0  0  0  0  0  0
    3.1071   -2.0458    1.0126 H   0  0  0  0  0  0  0  0  0  0  0  0
    2.2188    0.2318    1.0009 H   0  0  0  0  0  0  0  0  0  0  0  0
    0.7935    1.9907    2.0080 H   0  0  0  0  0  0  0  0  0  0  0  0
   -0.4994    1.5045    4.0805 H   0  0  0  0  0  0  0  0  0  0  0  0
   -0.3647   -0.7416    5.1374 H   0  0  0  0  0  0  0  0  0  0  0  0
    0.5305   -3.0483    5.1510 H   0  0  0  0  0  0  0  0  0  0  0  0
  1  2  1  0
  1 36  1  0
  1 37  1  0
  1 38  1  0
  2 12  1  0
  2  3  1  0
  3  4  1  0
  3 39  1  0
  3 40  1  0
  4 21  1  0
  4  5  1  0
  4 41  1  6
  5  6  1  0
  5 42  1  0
  5 43  1  0
  6 12  1  0
  6  7  1  0
  6 44  1  6
  7  8  1  0
  7  9  1  0
  7 45  1  6
  8 46  1  0
  9 25  1  0
  9 10  1  0
  9 47  1  6
 10 11  1  0
 10 13  1  0
 10 48  1  1
 11 12  1  0
 11 49  1  0
 11 50  1  0
 12 51  1  6
 13 19  2  0
 13 14  1  0
 14 15  2  0
 14 52  1  0
 15 16  1  0
 15 53  1  0
 16 17  2  0
 16 54  1  0
 17 18  1  0
 17 19  1  0
 18 55  1  0
 19 20  1  0
 20 21  1  0
 21 22  1  0
 21 56  1  1
 22 23  2  0
 22 24  1  0
 24 25  1  0
 25 26  1  0
 25 57  1  1
 26 35  1  0
 26 27  2  0
 27 28  1  0
 27 58  1  0
 28 29  2  0
 28 59  1  0
 29 34  1  0
 29 30  1  0
 30 31  2  0
 30 60  1  0
 31 32  1  0
 31 61  1  0
 32 33  2  0
 32 62  1  0
 33 34  1  0
 33 63  1  0
 34 35  2  0
 35 64  1  0
M  END
>  <i_m_ct_stereo_status>  (342) 
1

>  <s_m_source_file>  (342) 
/var/tmp/pbs.5076255.sched01/tmparsu8qf0/123n9qi1oz7.sdf

>  <i_m_source_file_index>  (342) 
22

>  <i_lp_mmshare_version>  (342) 
48012

>  <i_f3d_flags>  (342) 
0

>  <s_epik_input>  (342) 
W09IXWMxW2NIXVtjSF1bY0hdYyhjMU9bQ0BIXTJbQ0BASF0zNClbQ0BIXTVbQ0BIXShbQ0BIXShbT0hdKVtDQEBIXShbQ0gyXTQpW0NASF0oW0NIMl01KU4oW0NIM10pW0NIMl0zKVtDQEBIXShPQzI9TyljKFtjSF1bY0hdNilbY0hdYyhjNjcpW2NIXVtjSF1bY0hdW2NIXTc=

>  <s_epik_cmdline>  (342) 
J2VwaWtfcHl0aG9uJywgJy1waHQnLCAnMi4wJywgJy1waCcsICc3LjAnLCAnLXRuJywgJzgnLCAnLW1hJywgJzIwMCcsICctaW1hZScsICc8aW5maWxlLm1hZT4nLCAnLW9tYWUnLCAnPG91dGZpbGUubWFlPic=

>  <r_lp_tautomer_probability>  (342) 
1

>  <r_epik_Ionization_Penalty>  (342) 
1.60153

>  <r_epik_Ionization_Penalty_Charging>  (342) 
0

>  <r_epik_Ionization_Penalty_Neutral>  (342) 
1.60153

>  <r_epik_State_Penalty>  (342) 
1.69739

>  <r_epik_Charging_Adjusted_Penalty>  (342) 
1.69739

>  <i_epik_Tot_Q>  (342) 
0

>  <i_epik_Tot_abs_Q>  (342) 
0

>  <s_epik_Chemistry_Notes>  (342) 
This compound has an ester and may undergo hydrolysis at high or low pH.

>  <s_lp_Force_Field>  (342) 
OPLS3e

>  <r_lp_Energy>  (342) 
119.498

>  <b_lp_Chiralities_Consistent>  (342) 
1

>  <s_lp_Variant>  (342) 
105:0-2

>  <s_i_glide_gridfile>  (342) 
pfpi4k_grid

>  <i_i_glide_lignum>  (342) 
22

>  <i_i_glide_rotatable_bonds>  (342) 
3

>  <r_i_docking_score>  (342) 
-2.30011

>  <r_i_glide_ligand_efficiency>  (342) 
-0.0657173

>  <r_i_glide_ligand_efficiency_sa>  (342) 
-0.214966

>  <r_i_glide_ligand_efficiency_ln>  (342) 
-0.504924

>  <r_i_glide_gscore>  (342) 
-2.30011

>  <r_i_glide_lipo>  (342) 
-0.192921

>  <r_i_glide_hbond>  (342) 
-0.181507

>  <r_i_glide_metal>  (342) 
-0

>  <r_i_glide_rewards>  (342) 
-0.194016

>  <r_i_glide_evdw>  (342) 
-25.044

>  <r_i_glide_ecoul>  (342) 
-3.80244

>  <r_i_glide_erotb>  (342) 
0.0909063

>  <r_i_glide_esite>  (342) 
0

>  <r_i_glide_emodel>  (342) 
-32.556

>  <r_i_glide_energy>  (342) 
-28.8465

>  <r_i_glide_einternal>  (342) 
1.15454

>  <r_i_glide_intrahb_reward>  (342) 
-0

>  <i_i_glide_confnum>  (342) 
3

>  <i_i_glide_posenum>  (342) 
1

>  <r_i_glide_eff_state_penalty>  (342) 
0

>  <ligand_id>  (342) 
105

>  <original_smiles>  (342) 
CN1CC2CC3C(O)C4C(CC31)c1cccc(O)c1OC2C(=O)OC4c1ccc2ccccc2c1

>  <smiles>  (342) 
[H]Oc1c([H])c([H])c([H])c2c1OC1([H])C(=O)OC([H])(c3c([H])c([H])c4c([H])c([H])c([H])c([H])c4c3[H])C3([H])C([H])(O[H])C4([H])C([H])([H])C1([H])C([H])([H])N(C([H])([H])[H])C4([H])C([H])([H])C23[H]

$$$$
105:1:1
     RDKit          3D

 64 70  0  0  1  0  0  0  0  0999 V2000
    2.7360    3.7898    3.3267 C   0  0  0  0  0  0  0  0  0  0  0  0
    2.0756    2.5223    3.0482 N   0  0  0  0  0  0  0  0  0  0  0  0
    0.6342    2.5985    3.3286 C   0  0  0  0  0  0  0  0  0  0  0  0
   -0.0975    1.2248    3.3220 C   0  0  1  0  0  0  0  0  0  0  0  0
    0.7448    0.2011    2.5036 C   0  0  0  0  0  0  0  0  0  0  0  0
    2.2321    0.1092    2.9188 C   0  0  2  0  0  0  0  0  0  0  0  0
    2.6826   -1.1660    3.6178 C   0  0  1  0  0  0  0  0  0  0  0  0
    4.0896   -1.2484    3.5872 O   0  0  0  0  0  0  0  0  0  0  0  0
    2.1898   -1.3188    5.0759 C   0  0  1  0  0  0  0  0  0  0  0  0
    2.4791   -0.0252    5.9163 C   0  0  1  0  0  0  0  0  0  0  0  0
    2.8281    1.3096    5.1662 C   0  0  0  0  0  0  0  0  0  0  0  0
    2.7650    1.3575    3.6161 C   0  0  2  0  0  0  0  0  0  0  0  0
    1.5219    0.1743    7.0937 C   0  0  0  0  0  0  0  0  0  0  0  0
    1.8420   -0.4024    8.3445 C   0  0  0  0  0  0  0  0  0  0  0  0
    0.9885   -0.2377    9.4559 C   0  0  0  0  0  0  0  0  0  0  0  0
   -0.1881    0.5231    9.3264 C   0  0  0  0  0  0  0  0  0  0  0  0
   -0.5327    1.0939    8.0838 C   0  0  0  0  0  0  0  0  0  0  0  0
   -1.6905    1.8125    7.9682 O   0  0  0  0  0  0  0  0  0  0  0  0
    0.3114    0.9008    6.9635 C   0  0  0  0  0  0  0  0  0  0  0  0
    0.0214    1.5300    5.7769 O   0  0  0  0  0  0  0  0  0  0  0  0
   -0.7063    0.8792    4.7290 C   0  0  2  0  0  0  0  0  0  0  0  0
   -1.0862   -0.5892    5.0214 C   0  0  0  0  0  0  0  0  0  0  0  0
   -2.0952   -0.8723    5.6697 O   0  0  0  0  0  0  0  0  0  0  0  0
   -0.2395   -1.4899    4.5163 O   0  0  0  0  0  0  0  0  0  0  0  0
    0.8072   -2.0542    5.2848 C   0  0  1  0  0  0  0  0  0  0  0  0
    0.8798   -3.5747    5.0457 C   0  0  0  0  0  0  0  0  0  0  0  0
    0.7890   -4.4600    6.1387 C   0  0  0  0  0  0  0  0  0  0  0  0
    0.8725   -5.8526    5.9456 C   0  0  0  0  0  0  0  0  0  0  0  0
    1.0908   -6.3739    4.6484 C   0  0  0  0  0  0  0  0  0  0  0  0
    1.1919   -7.7647    4.4394 C   0  0  0  0  0  0  0  0  0  0  0  0
    1.4080   -8.2665    3.1341 C   0  0  0  0  0  0  0  0  0  0  0  0
    1.5293   -7.3826    2.0429 C   0  0  0  0  0  0  0  0  0  0  0  0
    1.4255   -5.9974    2.2524 C   0  0  0  0  0  0  0  0  0  0  0  0
    1.1807   -5.4967    3.5512 C   0  0  0  0  0  0  0  0  0  0  0  0
    1.0153   -4.1220    3.7435 C   0  0  0  0  0  0  0  0  0  0  0  0
    2.2636    4.5928    2.7530 H   0  0  0  0  0  0  0  0  0  0  0  0
    3.7881    3.7555    3.0401 H   0  0  0  0  0  0  0  0  0  0  0  0
    2.6832    4.0477    4.3873 H   0  0  0  0  0  0  0  0  0  0  0  0
    0.4539    3.1721    4.2396 H   0  0  0  0  0  0  0  0  0  0  0  0
    0.1959    3.1974    2.5367 H   0  0  0  0  0  0  0  0  0  0  0  0
   -0.9970    1.3600    2.7162 H   0  0  0  0  0  0  0  0  0  0  0  0
    0.2863   -0.7769    2.4191 H   0  0  0  0  0  0  0  0  0  0  0  0
    0.7168    0.5508    1.4625 H   0  0  0  0  0  0  0  0  0  0  0  0
    2.7336    0.0658    1.9527 H   0  0  0  0  0  0  0  0  0  0  0  0
    2.3994   -1.9701    2.9687 H   0  0  0  0  0  0  0  0  0  0  0  0
    4.3540   -1.3599    2.6843 H   0  0  0  0  0  0  0  0  0  0  0  0
    2.8471   -2.0505    5.5459 H   0  0  0  0  0  0  0  0  0  0  0  0
    3.4300   -0.2600    6.4022 H   0  0  0  0  0  0  0  0  0  0  0  0
    2.3027    2.1590    5.5995 H   0  0  0  0  0  0  0  0  0  0  0  0
    3.8661    1.5410    5.4072 H   0  0  0  0  0  0  0  0  0  0  0  0
    3.7967    1.4296    3.2769 H   0  0  0  0  0  0  0  0  0  0  0  0
    2.7548   -0.9737    8.4663 H   0  0  0  0  0  0  0  0  0  0  0  0
    1.2359   -0.6870   10.4065 H   0  0  0  0  0  0  0  0  0  0  0  0
   -0.8361    0.6465   10.1863 H   0  0  0  0  0  0  0  0  0  0  0  0
   -2.0286    2.1103    8.7990 H   0  0  0  0  0  0  0  0  0  0  0  0
   -1.6606    1.4066    4.7556 H   0  0  0  0  0  0  0  0  0  0  0  0
    0.5290   -1.9605    6.3400 H   0  0  0  0  0  0  0  0  0  0  0  0
    0.6243   -4.0769    7.1437 H   0  0  0  0  0  0  0  0  0  0  0  0
    0.7760   -6.5240    6.7859 H   0  0  0  0  0  0  0  0  0  0  0  0
    1.0990   -8.4548    5.2674 H   0  0  0  0  0  0  0  0  0  0  0  0
    1.4883   -9.3389    2.9701 H   0  0  0  0  0  0  0  0  0  0  0  0
    1.7061   -7.7731    1.0397 H   0  0  0  0  0  0  0  0  0  0  0  0
    1.5457   -5.3229    1.4218 H   0  0  0  0  0  0  0  0  0  0  0  0
    0.9480   -3.5399    2.8441 H   0  0  0  0  0  0  0  0  0  0  0  0
  1  2  1  0
  1 36  1  0
  1 37  1  0
  1 38  1  0
  2 12  1  0
  2  3  1  0
  3  4  1  0
  3 39  1  0
  3 40  1  0
  4 21  1  0
  4  5  1  0
  4 41  1  6
  5  6  1  0
  5 42  1  0
  5 43  1  0
  6 12  1  0
  6  7  1  0
  6 44  1  6
  7  8  1  0
  7  9  1  0
  7 45  1  6
  8 46  1  0
  9 25  1  0
  9 10  1  0
  9 47  1  1
 10 11  1  0
 10 13  1  0
 10 48  1  1
 11 12  1  0
 11 49  1  0
 11 50  1  0
 12 51  1  6
 13 19  2  0
 13 14  1  0
 14 15  2  0
 14 52  1  0
 15 16  1  0
 15 53  1  0
 16 17  2  0
 16 54  1  0
 17 18  1  0
 17 19  1  0
 18 55  1  0
 19 20  1  0
 20 21  1  0
 21 22  1  0
 21 56  1  6
 22 23  2  0
 22 24  1  0
 24 25  1  0
 25 26  1  0
 25 57  1  1
 26 35  1  0
 26 27  2  0
 27 28  1  0
 27 58  1  0
 28 29  2  0
 28 59  1  0
 29 34  1  0
 29 30  1  0
 30 31  2  0
 30 60  1  0
 31 32  1  0
 31 61  1  0
 32 33  2  0
 32 62  1  0
 33 34  1  0
 33 63  1  0
 34 35  2  0
 35 64  1  0
M  END
>  <i_m_ct_stereo_status>  (343) 
1

>  <s_m_source_file>  (343) 
/var/tmp/pbs.5076255.sched01/tmparsu8qf0/123n9qi1oz7.sdf

>  <i_m_source_file_index>  (343) 
22

>  <i_lp_mmshare_version>  (343) 
48012

>  <i_f3d_flags>  (343) 
0

>  <s_epik_input>  (343) 
W09IXWMxW2NIXVtjSF1bY0hdYyhjMU9bQ0BIXTJbQ0BASF0zNClbQ0BIXTVbQ0BIXShbQ0BIXShbT0hdKVtDQEBIXShbQ0gyXTQpW0NASF0oW0NIMl01KU4oW0NIM10pW0NIMl0zKVtDQEBIXShPQzI9TyljKFtjSF1bY0hdNilbY0hdYyhjNjcpW2NIXVtjSF1bY0hdW2NIXTc=

>  <s_epik_cmdline>  (343) 
J2VwaWtfcHl0aG9uJywgJy1waHQnLCAnMi4wJywgJy1waCcsICc3LjAnLCAnLXRuJywgJzgnLCAnLW1hJywgJzIwMCcsICctaW1hZScsICc8aW5maWxlLm1hZT4nLCAnLW9tYWUnLCAnPG91dGZpbGUubWFlPic=

>  <r_lp_tautomer_probability>  (343) 
1

>  <r_epik_Ionization_Penalty>  (343) 
1.60153

>  <r_epik_Ionization_Penalty_Charging>  (343) 
0

>  <r_epik_Ionization_Penalty_Neutral>  (343) 
1.60153

>  <r_epik_State_Penalty>  (343) 
1.69739

>  <r_epik_Charging_Adjusted_Penalty>  (343) 
1.69739

>  <i_epik_Tot_Q>  (343) 
0

>  <i_epik_Tot_abs_Q>  (343) 
0

>  <s_epik_Chemistry_Notes>  (343) 
This compound has an ester and may undergo hydrolysis at high or low pH.

>  <s_lp_Force_Field>  (343) 
OPLS3e

>  <r_lp_Energy>  (343) 
119.498

>  <b_lp_Chiralities_Consistent>  (343) 
1

>  <s_lp_Variant>  (343) 
105:0-2

>  <s_i_glide_gridfile>  (343) 
pfpi4k_grid

>  <i_i_glide_lignum>  (343) 
22

>  <i_i_glide_rotatable_bonds>  (343) 
3

>  <r_i_docking_score>  (343) 
-2.12025

>  <r_i_glide_ligand_efficiency>  (343) 
-0.0605786

>  <r_i_glide_ligand_efficiency_sa>  (343) 
-0.198157

>  <r_i_glide_ligand_efficiency_ln>  (343) 
-0.465442

>  <r_i_glide_gscore>  (343) 
-2.12025

>  <r_i_glide_lipo>  (343) 
-0.00301351

>  <r_i_glide_hbond>  (343) 
-0.0530107

>  <r_i_glide_metal>  (343) 
-0

>  <r_i_glide_rewards>  (343) 
-0.194016

>  <r_i_glide_evdw>  (343) 
-25.0445

>  <r_i_glide_ecoul>  (343) 
-4.48437

>  <r_i_glide_erotb>  (343) 
0.0909063

>  <r_i_glide_esite>  (343) 
-0.0362384

>  <r_i_glide_emodel>  (343) 
-32.4841

>  <r_i_glide_energy>  (343) 
-29.5289

>  <r_i_glide_einternal>  (343) 
1.49664

>  <r_i_glide_intrahb_reward>  (343) 
-0

>  <i_i_glide_confnum>  (343) 
6

>  <i_i_glide_posenum>  (343) 
31

>  <r_i_glide_eff_state_penalty>  (343) 
0

>  <ligand_id>  (343) 
105

>  <original_smiles>  (343) 
CN1CC2CC3C(O)C4C(CC31)c1cccc(O)c1OC2C(=O)OC4c1ccc2ccccc2c1

>  <smiles>  (343) 
[H]Oc1c([H])c([H])c([H])c2c1OC1([H])C(=O)OC([H])(c3c([H])c([H])c4c([H])c([H])c([H])c([H])c4c3[H])C3([H])C([H])(O[H])C4([H])C([H])([H])C1([H])C([H])([H])N(C([H])([H])[H])C4([H])C([H])([H])C23[H]

$$$$
105:1:2
     RDKit          3D

 64 70  0  0  1  0  0  0  0  0999 V2000
   -1.5283    3.6619    5.7805 C   0  0  0  0  0  0  0  0  0  0  0  0
   -1.0862    2.6439    4.8355 N   0  0  0  0  0  0  0  0  0  0  0  0
   -1.4951    1.2991    5.2614 C   0  0  0  0  0  0  0  0  0  0  0  0
   -0.8106    0.1360    4.4855 C   0  0  1  0  0  0  0  0  0  0  0  0
   -0.3319    0.6519    3.0968 C   0  0  0  0  0  0  0  0  0  0  0  0
    0.5352    1.9296    3.1469 C   0  0  2  0  0  0  0  0  0  0  0  0
    2.0200    1.7570    2.7912 C   0  0  1  0  0  0  0  0  0  0  0  0
    2.5388    3.0508    2.5099 O   0  0  0  0  0  0  0  0  0  0  0  0
    2.8680    1.0919    3.9025 C   0  0  1  0  0  0  0  0  0  0  0  0
    2.6192    1.6982    5.3276 C   0  0  1  0  0  0  0  0  0  0  0  0
    1.3598    2.6017    5.5572 C   0  0  0  0  0  0  0  0  0  0  0  0
    0.3173    2.7755    4.4162 C   0  0  2  0  0  0  0  0  0  0  0  0
    2.8884    0.7230    6.4734 C   0  0  0  0  0  0  0  0  0  0  0  0
    4.1922    0.6257    7.0066 C   0  0  0  0  0  0  0  0  0  0  0  0
    4.4777   -0.2737    8.0488 C   0  0  0  0  0  0  0  0  0  0  0  0
    3.4597   -1.0896    8.5731 C   0  0  0  0  0  0  0  0  0  0  0  0
    2.1537   -1.0021    8.0557 C   0  0  0  0  0  0  0  0  0  0  0  0
    1.1640   -1.7800    8.5852 O   0  0  0  0  0  0  0  0  0  0  0  0
    1.8711   -0.1102    6.9986 C   0  0  0  0  0  0  0  0  0  0  0  0
    0.5840    0.0104    6.5418 O   0  0  0  0  0  0  0  0  0  0  0  0
    0.1027   -0.7441    5.4173 C   0  0  2  0  0  0  0  0  0  0  0  0
    1.1590   -1.6519    4.7495 C   0  0  0  0  0  0  0  0  0  0  0  0
    1.3997   -2.7741    5.1895 O   0  0  0  0  0  0  0  0  0  0  0  0
    1.7548   -1.1166    3.6903 O   0  0  0  0  0  0  0  0  0  0  0  0
    3.0139   -0.4718    3.7783 C   0  0  1  0  0  0  0  0  0  0  0  0
    3.9053   -0.8708    2.6000 C   0  0  0  0  0  0  0  0  0  0  0  0
    5.3066   -0.7837    2.7417 C   0  0  0  0  0  0  0  0  0  0  0  0
    6.1535   -1.1289    1.6721 C   0  0  0  0  0  0  0  0  0  0  0  0
    5.6148   -1.5720    0.4514 C   0  0  0  0  0  0  0  0  0  0  0  0
    6.4681   -1.9358   -0.6072 C   0  0  0  0  0  0  0  0  0  0  0  0
    5.9309   -2.3734   -1.8376 C   0  0  0  0  0  0  0  0  0  0  0  0
    4.5358   -2.4488   -1.9997 C   0  0  0  0  0  0  0  0  0  0  0  0
    3.6796   -2.0978   -0.9327 C   0  0  0  0  0  0  0  0  0  0  0  0
    4.2146   -1.6553    0.2978 C   0  0  0  0  0  0  0  0  0  0  0  0
    3.3629   -1.3038    1.3650 C   0  0  0  0  0  0  0  0  0  0  0  0
   -2.6076    3.5933    5.9303 H   0  0  0  0  0  0  0  0  0  0  0  0
   -1.3055    4.6609    5.4026 H   0  0  0  0  0  0  0  0  0  0  0  0
   -1.0454    3.5475    6.7522 H   0  0  0  0  0  0  0  0  0  0  0  0
   -1.3790    1.2015    6.3415 H   0  0  0  0  0  0  0  0  0  0  0  0
   -2.5645    1.2371    5.0690 H   0  0  0  0  0  0  0  0  0  0  0  0
   -1.6103   -0.5589    4.2277 H   0  0  0  0  0  0  0  0  0  0  0  0
    0.1078   -0.1053    2.4531 H   0  0  0  0  0  0  0  0  0  0  0  0
   -1.2369    0.9221    2.5423 H   0  0  0  0  0  0  0  0  0  0  0  0
    0.1358    2.5319    2.3275 H   0  0  0  0  0  0  0  0  0  0  0  0
    2.1193    1.2045    1.8580 H   0  0  0  0  0  0  0  0  0  0  0  0
    1.9887    3.4849    1.8735 H   0  0  0  0  0  0  0  0  0  0  0  0
    3.8939    1.3989    3.6954 H   0  0  0  0  0  0  0  0  0  0  0  0
    3.4271    2.4272    5.4183 H   0  0  0  0  0  0  0  0  0  0  0  0
    0.8685    2.3569    6.4962 H   0  0  0  0  0  0  0  0  0  0  0  0
    1.7254    3.6065    5.7651 H   0  0  0  0  0  0  0  0  0  0  0  0
    0.4243    3.8075    4.0768 H   0  0  0  0  0  0  0  0  0  0  0  0
    4.9813    1.2506    6.6197 H   0  0  0  0  0  0  0  0  0  0  0  0
    5.4752   -0.3312    8.4528 H   0  0  0  0  0  0  0  0  0  0  0  0
    3.6865   -1.7674    9.3792 H   0  0  0  0  0  0  0  0  0  0  0  0
    1.4718   -2.3397    9.2786 H   0  0  0  0  0  0  0  0  0  0  0  0
   -0.5832   -1.4515    5.8878 H   0  0  0  0  0  0  0  0  0  0  0  0
    3.5401   -0.8571    4.6571 H   0  0  0  0  0  0  0  0  0  0  0  0
    5.7342   -0.4478    3.6759 H   0  0  0  0  0  0  0  0  0  0  0  0
    7.2209   -1.0522    1.7881 H   0  0  0  0  0  0  0  0  0  0  0  0
    7.5390   -1.8849   -0.4776 H   0  0  0  0  0  0  0  0  0  0  0  0
    6.5824   -2.6563   -2.6504 H   0  0  0  0  0  0  0  0  0  0  0  0
    4.1086   -2.7847   -2.9344 H   0  0  0  0  0  0  0  0  0  0  0  0
    2.6108   -2.1746   -1.0672 H   0  0  0  0  0  0  0  0  0  0  0  0
    2.2940   -1.3676    1.2302 H   0  0  0  0  0  0  0  0  0  0  0  0
  1  2  1  0
  1 36  1  0
  1 37  1  0
  1 38  1  0
  2 12  1  0
  2  3  1  0
  3  4  1  0
  3 39  1  0
  3 40  1  0
  4 21  1  0
  4  5  1  0
  4 41  1  6
  5  6  1  0
  5 42  1  0
  5 43  1  0
  6 12  1  0
  6  7  1  0
  6 44  1  6
  7  8  1  0
  7  9  1  0
  7 45  1  6
  8 46  1  0
  9 25  1  0
  9 10  1  0
  9 47  1  6
 10 11  1  0
 10 13  1  0
 10 48  1  1
 11 12  1  0
 11 49  1  0
 11 50  1  0
 12 51  1  6
 13 19  2  0
 13 14  1  0
 14 15  2  0
 14 52  1  0
 15 16  1  0
 15 53  1  0
 16 17  2  0
 16 54  1  0
 17 18  1  0
 17 19  1  0
 18 55  1  0
 19 20  1  0
 20 21  1  0
 21 22  1  0
 21 56  1  1
 22 23  2  0
 22 24  1  0
 24 25  1  0
 25 26  1  0
 25 57  1  1
 26 35  1  0
 26 27  2  0
 27 28  1  0
 27 58  1  0
 28 29  2  0
 28 59  1  0
 29 34  1  0
 29 30  1  0
 30 31  2  0
 30 60  1  0
 31 32  1  0
 31 61  1  0
 32 33  2  0
 32 62  1  0
 33 34  1  0
 33 63  1  0
 34 35  2  0
 35 64  1  0
M  END
>  <i_m_ct_stereo_status>  (344) 
1

>  <s_m_source_file>  (344) 
/var/tmp/pbs.5076255.sched01/tmparsu8qf0/123n9qi1oz7.sdf

>  <i_m_source_file_index>  (344) 
22

>  <i_lp_mmshare_version>  (344) 
48012

>  <i_f3d_flags>  (344) 
0

>  <s_epik_input>  (344) 
W09IXWMxW2NIXVtjSF1bY0hdYyhjMU9bQ0BIXTJbQ0BASF0zNClbQ0BIXTVbQ0BIXShbQ0BIXShbT0hdKVtDQEBIXShbQ0gyXTQpW0NASF0oW0NIMl01KU4oW0NIM10pW0NIMl0zKVtDQEBIXShPQzI9TyljKFtjSF1bY0hdNilbY0hdYyhjNjcpW2NIXVtjSF1bY0hdW2NIXTc=

>  <s_epik_cmdline>  (344) 
J2VwaWtfcHl0aG9uJywgJy1waHQnLCAnMi4wJywgJy1waCcsICc3LjAnLCAnLXRuJywgJzgnLCAnLW1hJywgJzIwMCcsICctaW1hZScsICc8aW5maWxlLm1hZT4nLCAnLW9tYWUnLCAnPG91dGZpbGUubWFlPic=

>  <r_lp_tautomer_probability>  (344) 
1

>  <r_epik_Ionization_Penalty>  (344) 
1.60153

>  <r_epik_Ionization_Penalty_Charging>  (344) 
0

>  <r_epik_Ionization_Penalty_Neutral>  (344) 
1.60153

>  <r_epik_State_Penalty>  (344) 
1.69739

>  <r_epik_Charging_Adjusted_Penalty>  (344) 
1.69739

>  <i_epik_Tot_Q>  (344) 
0

>  <i_epik_Tot_abs_Q>  (344) 
0

>  <s_epik_Chemistry_Notes>  (344) 
This compound has an ester and may undergo hydrolysis at high or low pH.

>  <s_lp_Force_Field>  (344) 
OPLS3e

>  <r_lp_Energy>  (344) 
119.498

>  <b_lp_Chiralities_Consistent>  (344) 
1

>  <s_lp_Variant>  (344) 
105:0-2

>  <s_i_glide_gridfile>  (344) 
pfpi4k_grid

>  <i_i_glide_lignum>  (344) 
22

>  <i_i_glide_rotatable_bonds>  (344) 
3

>  <r_i_docking_score>  (344) 
-2.04673

>  <r_i_glide_ligand_efficiency>  (344) 
-0.0584781

>  <r_i_glide_ligand_efficiency_sa>  (344) 
-0.191286

>  <r_i_glide_ligand_efficiency_ln>  (344) 
-0.449303

>  <r_i_glide_gscore>  (344) 
-2.04673

>  <r_i_glide_lipo>  (344) 
-0.370085

>  <r_i_glide_hbond>  (344) 
-0.036333

>  <r_i_glide_metal>  (344) 
-0

>  <r_i_glide_rewards>  (344) 
-0.194016

>  <r_i_glide_evdw>  (344) 
-26.2435

>  <r_i_glide_ecoul>  (344) 
-1.50019

>  <r_i_glide_erotb>  (344) 
0.0909063

>  <r_i_glide_esite>  (344) 
0

>  <r_i_glide_emodel>  (344) 
-31.3974

>  <r_i_glide_energy>  (344) 
-27.7437

>  <r_i_glide_einternal>  (344) 
0.55424

>  <r_i_glide_intrahb_reward>  (344) 
-0

>  <i_i_glide_confnum>  (344) 
1

>  <i_i_glide_posenum>  (344) 
22

>  <r_i_glide_eff_state_penalty>  (344) 
0

>  <ligand_id>  (344) 
105

>  <original_smiles>  (344) 
CN1CC2CC3C(O)C4C(CC31)c1cccc(O)c1OC2C(=O)OC4c1ccc2ccccc2c1

>  <smiles>  (344) 
[H]Oc1c([H])c([H])c([H])c2c1OC1([H])C(=O)OC([H])(c3c([H])c([H])c4c([H])c([H])c([H])c([H])c4c3[H])C3([H])C([H])(O[H])C4([H])C([H])([H])C1([H])C([H])([H])N(C([H])([H])[H])C4([H])C([H])([H])C23[H]

$$$$
108:0:0
     RDKit          3D

 74 81  0  0  1  0  0  0  0  0999 V2000
    6.0450  -12.2115    4.5517 C   0  0  0  0  0  0  0  0  0  0  0  0
    5.9129  -10.9698    3.8764 O   0  0  0  0  0  0  0  0  0  0  0  0
    6.4443   -9.8931    4.6374 C   0  0  0  0  0  0  0  0  0  0  0  0
    6.3052   -8.5469    3.8777 C   0  0  1  0  0  0  0  0  0  0  0  0
    7.1028   -8.6949    2.5296 C   0  0  0  0  0  0  0  0  0  0  0  0
    7.5116   -7.7204    1.6581 C   0  0  0  0  0  0  0  0  0  0  0  0
    7.2777   -6.2621    1.9550 C   0  0  1  0  0  0  0  0  0  0  0  0
    7.3523   -4.9671    1.1425 C   0  0  0  0  0  0  0  0  0  0  0  0
    7.9460   -4.0214    0.2856 C   0  0  0  0  0  0  0  0  0  0  0  0
    9.0244   -4.2834   -0.4740 O   0  0  0  0  0  0  0  0  0  0  0  0
    7.2545   -2.7552    0.2109 C   0  0  0  0  0  0  0  0  0  0  0  0
    6.0628   -2.4479    0.9430 C   0  0  0  0  0  0  0  0  0  0  0  0
    5.4318   -3.4303    1.7420 C   0  0  0  0  0  0  0  0  0  0  0  0
    6.1101   -4.6048    1.7430 C   0  0  0  0  0  0  0  0  0  0  0  0
    5.7260   -5.9623    2.1425 C   0  0  1  0  0  0  0  0  0  0  0  0
    4.8365   -6.3827    0.8907 C   0  0  0  0  0  0  0  0  0  0  0  0
    3.4667   -5.7130    0.8292 C   0  0  0  0  0  0  0  0  0  0  0  0
    2.8262   -5.6025    2.2141 C   0  0  1  0  0  0  0  0  0  0  0  0
    2.0412   -6.9752    2.5177 C   0  0  0  0  0  0  0  0  0  0  0  0
    2.6310   -8.4454    2.2884 C   0  0  0  0  0  0  0  0  0  0  0  0
    3.5814   -9.1170    3.3081 N   0  0  2  0  0  0  0  0  0  0  0  0
    2.9422   -9.6788    4.5367 C   0  0  0  0  0  0  0  0  0  0  0  0
    2.0117  -10.8570    4.2746 C   0  0  0  0  0  0  0  0  0  0  0  0
    1.7417  -11.3802    2.8861 C   0  0  0  0  0  0  0  0  0  0  0  0
    0.6568  -10.6294    3.6418 C   0  0  0  0  0  0  0  0  0  0  0  0
    4.7589   -8.2486    3.5998 C   0  0  1  0  0  0  0  0  0  0  0  0
    4.3306   -7.0186    4.2711 C   0  0  0  0  0  0  0  0  0  0  0  0
    5.0250   -5.8541    3.5403 C   0  0  1  0  0  0  0  0  0  0  0  0
    6.1806   -5.8416    4.6141 C   0  0  0  0  0  0  0  0  0  0  0  0
    6.8913   -7.3043    4.7718 C   0  0  1  0  0  0  0  0  0  0  0  0
    6.8068   -7.6005    6.1732 O   0  0  0  0  0  0  0  0  0  0  0  0
    8.0010   -8.0725    6.8008 C   0  0  0  0  0  0  0  0  0  0  0  0
    3.8146   -4.8794    3.2698 C   0  0  1  0  0  0  0  0  0  0  0  0
    4.2497   -3.4589    2.7233 C   0  0  0  0  0  0  0  0  0  0  0  0
    5.6582  -13.0039    3.9146 H   0  0  0  0  0  0  0  0  0  0  0  0
    5.4704  -12.2131    5.4778 H   0  0  0  0  0  0  0  0  0  0  0  0
    7.0826  -12.4547    4.7915 H   0  0  0  0  0  0  0  0  0  0  0  0
    5.9395   -9.8449    5.6042 H   0  0  0  0  0  0  0  0  0  0  0  0
    7.4990  -10.1013    4.8170 H   0  0  0  0  0  0  0  0  0  0  0  0
    7.3680   -9.7164    2.2765 H   0  0  0  0  0  0  0  0  0  0  0  0
    8.1015   -7.9762    0.7852 H   0  0  0  0  0  0  0  0  0  0  0  0
    7.9476   -6.0202    2.7911 H   0  0  0  0  0  0  0  0  0  0  0  0
    9.2410   -3.5914   -1.0903 H   0  0  0  0  0  0  0  0  0  0  0  0
    7.6370   -2.0344   -0.4796 H   0  0  0  0  0  0  0  0  0  0  0  0
    5.6324   -1.4650    0.8641 H   0  0  0  0  0  0  0  0  0  0  0  0
    5.3583   -6.1194   -0.0251 H   0  0  0  0  0  0  0  0  0  0  0  0
    4.7530   -7.4582    0.7395 H   0  0  0  0  0  0  0  0  0  0  0  0
    3.5797   -4.7181    0.3943 H   0  0  0  0  0  0  0  0  0  0  0  0
    2.8339   -6.2411    0.1237 H   0  0  0  0  0  0  0  0  0  0  0  0
    2.0125   -4.8828    2.0810 H   0  0  0  0  0  0  0  0  0  0  0  0
    1.4981   -6.8973    3.4626 H   0  0  0  0  0  0  0  0  0  0  0  0
    1.2268   -6.9425    1.8118 H   0  0  0  0  0  0  0  0  0  0  0  0
    1.7317   -9.0409    2.1557 H   0  0  0  0  0  0  0  0  0  0  0  0
    3.1138   -8.5064    1.2986 H   0  0  0  0  0  0  0  0  0  0  0  0
    3.7218  -10.0513    5.2095 H   0  0  0  0  0  0  0  0  0  0  0  0
    2.4262   -8.9117    5.1275 H   0  0  0  0  0  0  0  0  0  0  0  0
    2.0095  -11.5662    5.0892 H   0  0  0  0  0  0  0  0  0  0  0  0
    2.3290  -10.8994    2.1004 H   0  0  0  0  0  0  0  0  0  0  0  0
    1.5716  -12.4454    2.7941 H   0  0  0  0  0  0  0  0  0  0  0  0
   -0.1536  -11.2478    3.9852 H   0  0  0  0  0  0  0  0  0  0  0  0
    0.4345   -9.5677    3.4712 H   0  0  0  0  0  0  0  0  0  0  0  0
    4.8963   -8.1189    2.5627 H   0  0  0  0  0  0  0  0  0  0  0  0
    3.2770   -6.9004    4.4499 H   0  0  0  0  0  0  0  0  0  0  0  0
    4.5091   -7.1513    5.3441 H   0  0  0  0  0  0  0  0  0  0  0  0
    6.9294   -5.0947    4.3828 H   0  0  0  0  0  0  0  0  0  0  0  0
    5.7891   -5.5008    5.5775 H   0  0  0  0  0  0  0  0  0  0  0  0
    7.9503   -7.1872    4.5465 H   0  0  0  0  0  0  0  0  0  0  0  0
    7.8116   -8.2478    7.8610 H   0  0  0  0  0  0  0  0  0  0  0  0
    8.8111   -7.3492    6.7166 H   0  0  0  0  0  0  0  0  0  0  0  0
    8.3538   -9.0124    6.3897 H   0  0  0  0  0  0  0  0  0  0  0  0
    3.2414   -4.7176    4.1881 H   0  0  0  0  0  0  0  0  0  0  0  0
    4.5261   -2.8545    3.5944 H   0  0  0  0  0  0  0  0  0  0  0  0
    3.4051   -2.9414    2.2609 H   0  0  0  0  0  0  0  0  0  0  0  0
    3.9753   -9.9358    2.8489 H   0  0  0  0  0  0  0  0  0  0  0  0
  1  2  1  0
  1 35  1  0
  1 36  1  0
  1 37  1  0
  2  3  1  0
  4  3  1  1
  3 38  1  0
  3 39  1  0
  4 26  1  0
  4 30  1  0
  4  5  1  0
  5  6  2  3
  5 40  1  0
  6  7  1  0
  6 41  1  0
  7 15  1  0
  7  8  1  0
  7 42  1  1
  8 14  2  0
  8  9  1  0
  9 10  1  0
  9 11  2  0
 10 43  1  0
 11 12  1  0
 11 44  1  0
 12 13  2  0
 12 45  1  0
 13 34  1  0
 13 14  1  0
 14 15  1  0
 15 28  1  0
 15 16  1  6
 16 17  1  0
 16 46  1  0
 16 47  1  0
 17 18  1  0
 17 48  1  0
 17 49  1  0
 18 33  1  0
 18 19  1  0
 18 50  1  6
 19 20  1  0
 19 51  1  0
 19 52  1  0
 20 21  1  0
 20 53  1  0
 20 54  1  0
 21 22  1  0
 21 26  1  0
 21 74  1  6
 22 23  1  0
 22 55  1  0
 22 56  1  0
 23 25  1  0
 23 24  1  0
 23 57  1  0
 24 25  1  0
 24 58  1  0
 24 59  1  0
 25 60  1  0
 25 61  1  0
 26 27  1  0
 26 62  1  6
 27 28  1  0
 27 63  1  0
 27 64  1  0
 28 29  1  1
 28 33  1  0
 29 30  1  0
 29 65  1  0
 29 66  1  0
 30 31  1  0
 30 67  1  6
 31 32  1  0
 32 68  1  0
 32 69  1  0
 32 70  1  0
 33 34  1  0
 33 71  1  1
 34 72  1  0
 34 73  1  0
M  CHG  1  21   1
M  END
>  <i_m_ct_stereo_status>  (345) 
1

>  <s_m_source_file>  (345) 
/var/tmp/pbs.5076255.sched01/tmparsu8qf0/123n9qi1oz7.sdf

>  <i_m_source_file_index>  (345) 
25

>  <i_lp_mmshare_version>  (345) 
48012

>  <i_f3d_flags>  (345) 
0

>  <s_epik_input>  (345) 
W0NAQF0xMjNbQ0BAXTQ1W0NAQEhdNltDQEBIXShbQ0gyXVtDSDJdMylbQ0gyXVtDSDJdTihbQ0gyXVtDSF03W0NIMl1bQ0gyXTcpW0NAQEhdKFtDSDJdNClbQ0BdKFtDSDJdT1tDSDNdKShbQ0BASF0oW0NIMl01KU9bQ0gzXSkvW0NIXT1bQ0hdXFtDQEhdMWM4YzJjKFtDSDJdNilbY0hdW2NIXWM4W09IXQ==

>  <s_epik_cmdline>  (345) 
J2VwaWtfcHl0aG9uJywgJy1waHQnLCAnMi4wJywgJy1waCcsICc3LjAnLCAnLXRuJywgJzgnLCAnLW1hJywgJzIwMCcsICctaW1hZScsICc8aW5maWxlLm1hZT4nLCAnLW9tYWUnLCAnPG91dGZpbGUubWFlPic=

>  <r_lp_tautomer_probability>  (345) 
1

>  <r_epik_Ionization_Penalty>  (345) 
0.0031265

>  <r_epik_Ionization_Penalty_Charging>  (345) 
0.00303042

>  <r_epik_Ionization_Penalty_Neutral>  (345) 
9.60801e-05

>  <r_epik_State_Penalty>  (345) 
0.00212919

>  <r_epik_Charging_Adjusted_Penalty>  (345) 
0.00515961

>  <i_epik_Tot_Q>  (345) 
1

>  <i_epik_Tot_abs_Q>  (345) 
1

>  <s_lp_Force_Field>  (345) 
OPLS3e

>  <r_lp_Energy>  (345) 
237.252

>  <b_lp_Chiralities_Consistent>  (345) 
1

>  <s_lp_Variant>  (345) 
108:0-1

>  <s_i_glide_gridfile>  (345) 
pfpi4k_grid

>  <i_i_glide_lignum>  (345) 
25

>  <i_i_glide_rotatable_bonds>  (345) 
6

>  <r_i_docking_score>  (345) 
-2.89775

>  <r_i_glide_ligand_efficiency>  (345) 
-0.0852278

>  <r_i_glide_ligand_efficiency_sa>  (345) 
-0.276105

>  <r_i_glide_ligand_efficiency_ln>  (345) 
-0.640193

>  <r_i_glide_gscore>  (345) 
-2.89775

>  <r_i_glide_lipo>  (345) 
-0.97535

>  <r_i_glide_hbond>  (345) 
-0.150318

>  <r_i_glide_metal>  (345) 
-0

>  <r_i_glide_rewards>  (345) 
-0.254703

>  <r_i_glide_evdw>  (345) 
-21.5848

>  <r_i_glide_ecoul>  (345) 
-4.19081

>  <r_i_glide_erotb>  (345) 
0.197654

>  <r_i_glide_esite>  (345) 
-0.00716397

>  <r_i_glide_emodel>  (345) 
-22.9414

>  <r_i_glide_energy>  (345) 
-25.7757

>  <r_i_glide_einternal>  (345) 
10.6621

>  <r_i_glide_intrahb_reward>  (345) 
-0

>  <i_i_glide_confnum>  (345) 
5

>  <i_i_glide_posenum>  (345) 
31

>  <r_i_glide_eff_state_penalty>  (345) 
0

>  <ligand_id>  (345) 
108

>  <original_smiles>  (345) 
COCC12C=CC3c4c(O)ccc5c4C34CCC3CCN(CC6CC6)C1CC4(CC2OC)C3C5

>  <smiles>  (345) 
[H]Oc1c([H])c([H])c2c3c1C1([H])C([H])=C([H])C4(C([H])([H])OC([H])([H])[H])C([H])(OC([H])([H])[H])C([H])([H])C56C([H])([H])C4([H])[N+]([H])(C([H])([H])C4([H])C([H])([H])C4([H])[H])C([H])([H])C([H])([H])C([H])(C([H])([H])C([H])([H])C315)C6([H])C2([H])[H]

$$$$
108:0:1
     RDKit          3D

 74 81  0  0  1  0  0  0  0  0999 V2000
    6.4091   -1.0360    0.9358 C   0  0  0  0  0  0  0  0  0  0  0  0
    5.5409   -0.4310    1.8823 O   0  0  0  0  0  0  0  0  0  0  0  0
    4.7807   -1.3755    2.6205 C   0  0  0  0  0  0  0  0  0  0  0  0
    3.5912   -0.6671    3.3282 C   0  0  1  0  0  0  0  0  0  0  0  0
    2.7681    0.0808    2.2027 C   0  0  0  0  0  0  0  0  0  0  0  0
    1.8204    1.0581    2.3441 C   0  0  0  0  0  0  0  0  0  0  0  0
    1.4794    1.5974    3.7140 C   0  0  1  0  0  0  0  0  0  0  0  0
    0.3567    2.4720    4.2678 C   0  0  0  0  0  0  0  0  0  0  0  0
   -0.4841    3.5877    4.3289 C   0  0  0  0  0  0  0  0  0  0  0  0
   -0.6451    4.4419    3.2775 O   0  0  0  0  0  0  0  0  0  0  0  0
   -1.2613    3.6960    5.5371 C   0  0  0  0  0  0  0  0  0  0  0  0
   -1.1894    2.7674    6.6414 C   0  0  0  0  0  0  0  0  0  0  0  0
   -0.4026    1.5960    6.5293 C   0  0  0  0  0  0  0  0  0  0  0  0
    0.2523    1.5300    5.3505 C   0  0  0  0  0  0  0  0  0  0  0  0
    0.9526    0.4424    4.6701 C   0  0  1  0  0  0  0  0  0  0  0  0
   -0.3010   -0.3439    4.1032 C   0  0  0  0  0  0  0  0  0  0  0  0
   -1.0852   -1.1238    5.1443 C   0  0  0  0  0  0  0  0  0  0  0  0
   -0.1723   -1.8003    6.1600 C   0  0  1  0  0  0  0  0  0  0  0  0
    0.2856   -3.2237    5.5854 C   0  0  0  0  0  0  0  0  0  0  0  0
    0.8485   -3.4698    4.0923 C   0  0  0  0  0  0  0  0  0  0  0  0
    2.3065   -3.1645    3.7284 N   0  0  2  0  0  0  0  0  0  0  0  0
    3.3169   -4.1854    4.1456 C   0  0  0  0  0  0  0  0  0  0  0  0
    3.3098   -5.4583    3.2990 C   0  0  0  0  0  0  0  0  0  0  0  0
    2.4053   -5.6319    2.0939 C   0  0  0  0  0  0  0  0  0  0  0  0
    2.2044   -6.4976    3.3376 C   0  0  0  0  0  0  0  0  0  0  0  0
    2.6809   -1.7649    4.0378 C   0  0  1  0  0  0  0  0  0  0  0  0
    2.6431   -1.5715    5.4897 C   0  0  0  0  0  0  0  0  0  0  0  0
    1.8446   -0.2772    5.7298 C   0  0  1  0  0  0  0  0  0  0  0  0
    3.1676    0.5553    5.8232 C   0  0  0  0  0  0  0  0  0  0  0  0
    4.1131    0.3458    4.5046 C   0  0  1  0  0  0  0  0  0  0  0  0
    5.3763   -0.1177    4.9987 O   0  0  0  0  0  0  0  0  0  0  0  0
    6.1309    0.8054    5.7913 C   0  0  0  0  0  0  0  0  0  0  0  0
    0.8364   -0.7382    6.8430 C   0  0  1  0  0  0  0  0  0  0  0  0
    0.0253    0.4640    7.4821 C   0  0  0  0  0  0  0  0  0  0  0  0
    6.9857   -0.2646    0.4299 H   0  0  0  0  0  0  0  0  0  0  0  0
    5.8469   -1.5719    0.1723 H   0  0  0  0  0  0  0  0  0  0  0  0
    7.1150   -1.7302    1.3878 H   0  0  0  0  0  0  0  0  0  0  0  0
    4.3865   -2.1312    1.9397 H   0  0  0  0  0  0  0  0  0  0  0  0
    5.4310   -1.9028    3.3175 H   0  0  0  0  0  0  0  0  0  0  0  0
    3.0172   -0.2137    1.1874 H   0  0  0  0  0  0  0  0  0  0  0  0
    1.3668    1.5260    1.4736 H   0  0  0  0  0  0  0  0  0  0  0  0
    2.3555    2.1808    4.0437 H   0  0  0  0  0  0  0  0  0  0  0  0
   -0.2035    4.2216    2.4508 H   0  0  0  0  0  0  0  0  0  0  0  0
   -1.9759    4.4850    5.5911 H   0  0  0  0  0  0  0  0  0  0  0  0
   -1.7741    2.9494    7.5293 H   0  0  0  0  0  0  0  0  0  0  0  0
   -0.9777    0.3575    3.6343 H   0  0  0  0  0  0  0  0  0  0  0  0
   -0.0719   -0.9644    3.2538 H   0  0  0  0  0  0  0  0  0  0  0  0
   -1.7760   -0.4416    5.6448 H   0  0  0  0  0  0  0  0  0  0  0  0
   -1.7207   -1.8424    4.6442 H   0  0  0  0  0  0  0  0  0  0  0  0
   -0.8421   -2.0904    6.9681 H   0  0  0  0  0  0  0  0  0  0  0  0
    0.8638   -3.7764    6.3236 H   0  0  0  0  0  0  0  0  0  0  0  0
   -0.6195   -3.8092    5.5763 H   0  0  0  0  0  0  0  0  0  0  0  0
    0.6041   -4.4955    3.9013 H   0  0  0  0  0  0  0  0  0  0  0  0
    0.2247   -2.9515    3.3632 H   0  0  0  0  0  0  0  0  0  0  0  0
    4.3209   -3.7499    4.0726 H   0  0  0  0  0  0  0  0  0  0  0  0
    3.2177   -4.4376    5.2082 H   0  0  0  0  0  0  0  0  0  0  0  0
    4.3019   -5.8886    3.2637 H   0  0  0  0  0  0  0  0  0  0  0  0
    1.7558   -4.7950    1.8422 H   0  0  0  0  0  0  0  0  0  0  0  0
    2.8416   -6.1059    1.2141 H   0  0  0  0  0  0  0  0  0  0  0  0
    2.4746   -7.5501    3.1714 H   0  0  0  0  0  0  0  0  0  0  0  0
    1.4261   -6.3109    4.0807 H   0  0  0  0  0  0  0  0  0  0  0  0
    1.7927   -1.4469    3.5683 H   0  0  0  0  0  0  0  0  0  0  0  0
    2.3638   -2.4175    6.0838 H   0  0  0  0  0  0  0  0  0  0  0  0
    3.6747   -1.6355    5.8414 H   0  0  0  0  0  0  0  0  0  0  0  0
    2.9721    1.6071    5.9993 H   0  0  0  0  0  0  0  0  0  0  0  0
    3.6591    0.2310    6.7434 H   0  0  0  0  0  0  0  0  0  0  0  0
    4.3285    1.3042    4.0322 H   0  0  0  0  0  0  0  0  0  0  0  0
    7.0742    0.3473    6.0872 H   0  0  0  0  0  0  0  0  0  0  0  0
    5.6347    1.0927    6.7139 H   0  0  0  0  0  0  0  0  0  0  0  0
    6.3656    1.7363    5.2869 H   0  0  0  0  0  0  0  0  0  0  0  0
    1.3553   -1.2548    7.6549 H   0  0  0  0  0  0  0  0  0  0  0  0
    0.6626    0.8962    8.2655 H   0  0  0  0  0  0  0  0  0  0  0  0
   -0.8682    0.1130    8.0022 H   0  0  0  0  0  0  0  0  0  0  0  0
    2.3535   -3.2159    2.7003 H   0  0  0  0  0  0  0  0  0  0  0  0
  1  2  1  0
  1 35  1  0
  1 36  1  0
  1 37  1  0
  2  3  1  0
  4  3  1  6
  3 38  1  0
  3 39  1  0
  4 26  1  0
  4 30  1  0
  4  5  1  0
  5  6  2  3
  5 40  1  0
  6  7  1  0
  6 41  1  0
  7 15  1  0
  7  8  1  0
  7 42  1  1
  8 14  2  0
  8  9  1  0
  9 10  1  0
  9 11  2  0
 10 43  1  0
 11 12  1  0
 11 44  1  0
 12 13  2  0
 12 45  1  0
 13 34  1  0
 13 14  1  0
 14 15  1  0
 15 28  1  0
 15 16  1  6
 16 17  1  0
 16 46  1  0
 16 47  1  0
 17 18  1  0
 17 48  1  0
 17 49  1  0
 18 33  1  0
 18 19  1  0
 18 50  1  1
 19 20  1  0
 19 51  1  0
 19 52  1  0
 20 21  1  0
 20 53  1  0
 20 54  1  0
 21 22  1  0
 21 26  1  0
 21 74  1  6
 22 23  1  0
 22 55  1  0
 22 56  1  0
 23 25  1  0
 23 24  1  0
 23 57  1  0
 24 25  1  0
 24 58  1  0
 24 59  1  0
 25 60  1  0
 25 61  1  0
 26 27  1  0
 26 62  1  6
 27 28  1  0
 27 63  1  0
 27 64  1  0
 28 29  1  1
 28 33  1  0
 29 30  1  0
 29 65  1  0
 29 66  1  0
 30 31  1  0
 30 67  1  6
 31 32  1  0
 32 68  1  0
 32 69  1  0
 32 70  1  0
 33 34  1  0
 33 71  1  1
 34 72  1  0
 34 73  1  0
M  CHG  1  21   1
M  END
>  <i_m_ct_stereo_status>  (346) 
1

>  <s_m_source_file>  (346) 
/var/tmp/pbs.5076255.sched01/tmparsu8qf0/123n9qi1oz7.sdf

>  <i_m_source_file_index>  (346) 
25

>  <i_lp_mmshare_version>  (346) 
48012

>  <i_f3d_flags>  (346) 
0

>  <s_epik_input>  (346) 
W0NAQF0xMjNbQ0BAXTQ1W0NAQEhdNltDQEBIXShbQ0gyXVtDSDJdMylbQ0gyXVtDSDJdTihbQ0gyXVtDSF03W0NIMl1bQ0gyXTcpW0NAQEhdKFtDSDJdNClbQ0BdKFtDSDJdT1tDSDNdKShbQ0BASF0oW0NIMl01KU9bQ0gzXSkvW0NIXT1bQ0hdXFtDQEhdMWM4YzJjKFtDSDJdNilbY0hdW2NIXWM4W09IXQ==

>  <s_epik_cmdline>  (346) 
J2VwaWtfcHl0aG9uJywgJy1waHQnLCAnMi4wJywgJy1waCcsICc3LjAnLCAnLXRuJywgJzgnLCAnLW1hJywgJzIwMCcsICctaW1hZScsICc8aW5maWxlLm1hZT4nLCAnLW9tYWUnLCAnPG91dGZpbGUubWFlPic=

>  <r_lp_tautomer_probability>  (346) 
1

>  <r_epik_Ionization_Penalty>  (346) 
0.0031265

>  <r_epik_Ionization_Penalty_Charging>  (346) 
0.00303042

>  <r_epik_Ionization_Penalty_Neutral>  (346) 
9.60801e-05

>  <r_epik_State_Penalty>  (346) 
0.00212919

>  <r_epik_Charging_Adjusted_Penalty>  (346) 
0.00515961

>  <i_epik_Tot_Q>  (346) 
1

>  <i_epik_Tot_abs_Q>  (346) 
1

>  <s_lp_Force_Field>  (346) 
OPLS3e

>  <r_lp_Energy>  (346) 
237.252

>  <b_lp_Chiralities_Consistent>  (346) 
1

>  <s_lp_Variant>  (346) 
108:0-1

>  <s_i_glide_gridfile>  (346) 
pfpi4k_grid

>  <i_i_glide_lignum>  (346) 
25

>  <i_i_glide_rotatable_bonds>  (346) 
6

>  <r_i_docking_score>  (346) 
-2.80986

>  <r_i_glide_ligand_efficiency>  (346) 
-0.082643

>  <r_i_glide_ligand_efficiency_sa>  (346) 
-0.267731

>  <r_i_glide_ligand_efficiency_ln>  (346) 
-0.620777

>  <r_i_glide_gscore>  (346) 
-2.80986

>  <r_i_glide_lipo>  (346) 
-0.290985

>  <r_i_glide_hbond>  (346) 
-0.295858

>  <r_i_glide_metal>  (346) 
-0

>  <r_i_glide_rewards>  (346) 
-0.254703

>  <r_i_glide_evdw>  (346) 
-21.166

>  <r_i_glide_ecoul>  (346) 
-7.94917

>  <r_i_glide_erotb>  (346) 
0.282363

>  <r_i_glide_esite>  (346) 
0

>  <r_i_glide_emodel>  (346) 
-26.9431

>  <r_i_glide_energy>  (346) 
-29.1152

>  <r_i_glide_einternal>  (346) 
10.1532

>  <r_i_glide_intrahb_reward>  (346) 
-0

>  <i_i_glide_confnum>  (346) 
4

>  <i_i_glide_posenum>  (346) 
6

>  <r_i_glide_eff_state_penalty>  (346) 
0

>  <ligand_id>  (346) 
108

>  <original_smiles>  (346) 
COCC12C=CC3c4c(O)ccc5c4C34CCC3CCN(CC6CC6)C1CC4(CC2OC)C3C5

>  <smiles>  (346) 
[H]Oc1c([H])c([H])c2c3c1C1([H])C([H])=C([H])C4(C([H])([H])OC([H])([H])[H])C([H])(OC([H])([H])[H])C([H])([H])C56C([H])([H])C4([H])[N+]([H])(C([H])([H])C4([H])C([H])([H])C4([H])[H])C([H])([H])C([H])([H])C([H])(C([H])([H])C([H])([H])C315)C6([H])C2([H])[H]

$$$$
108:0:2
     RDKit          3D

 74 81  0  0  1  0  0  0  0  0999 V2000
    6.4288   -1.0561    0.7911 C   0  0  0  0  0  0  0  0  0  0  0  0
    5.4960   -0.4701    1.6882 O   0  0  0  0  0  0  0  0  0  0  0  0
    4.7223   -1.4324    2.3861 C   0  0  0  0  0  0  0  0  0  0  0  0
    3.5834   -0.7468    3.1947 C   0  0  1  0  0  0  0  0  0  0  0  0
    2.7312    0.0856    2.1571 C   0  0  0  0  0  0  0  0  0  0  0  0
    1.8289    1.0808    2.3952 C   0  0  0  0  0  0  0  0  0  0  0  0
    1.5794    1.5700    3.8012 C   0  0  1  0  0  0  0  0  0  0  0  0
    0.5025    2.4268    4.4721 C   0  0  0  0  0  0  0  0  0  0  0  0
   -0.3001    3.5661    4.6188 C   0  0  0  0  0  0  0  0  0  0  0  0
   -0.4658    4.4974    3.6393 O   0  0  0  0  0  0  0  0  0  0  0  0
   -1.0032    3.6459    5.8708 C   0  0  0  0  0  0  0  0  0  0  0  0
   -0.8923    2.6572    6.9293 C   0  0  0  0  0  0  0  0  0  0  0  0
   -0.1277    1.4840    6.7431 C   0  0  0  0  0  0  0  0  0  0  0  0
    0.4503    1.4460    5.5064 C   0  0  0  0  0  0  0  0  0  0  0  0
    1.0802    0.3759    4.7319 C   0  0  1  0  0  0  0  0  0  0  0  0
   -0.2184   -0.3482    4.1978 C   0  0  0  0  0  0  0  0  0  0  0  0
   -0.9802   -1.1674    5.2427 C   0  0  0  0  0  0  0  0  0  0  0  0
   -0.0159   -1.9266    6.1656 C   0  0  1  0  0  0  0  0  0  0  0  0
    0.3672   -3.3473    5.5011 C   0  0  0  0  0  0  0  0  0  0  0  0
    0.8751   -3.5771    3.9880 C   0  0  0  0  0  0  0  0  0  0  0  0
    2.2967   -3.2411    3.5029 N   0  0  2  0  0  0  0  0  0  0  0  0
    3.3128   -4.2677    3.8661 C   0  0  0  0  0  0  0  0  0  0  0  0
    3.2133   -5.5256    3.0131 C   0  0  0  0  0  0  0  0  0  0  0  0
    4.3752   -6.4958    2.9592 C   0  0  0  0  0  0  0  0  0  0  0  0
    4.0389   -5.6600    1.7509 C   0  0  0  0  0  0  0  0  0  0  0  0
    2.6783   -1.8587    3.8882 C   0  0  1  0  0  0  0  0  0  0  0  0
    2.7418   -1.7367    5.3458 C   0  0  0  0  0  0  0  0  0  0  0  0
    2.0180   -0.4258    5.7075 C   0  0  1  0  0  0  0  0  0  0  0  0
    3.3469    0.3776    5.7629 C   0  0  0  0  0  0  0  0  0  0  0  0
    4.2059    0.2084    4.3812 C   0  0  1  0  0  0  0  0  0  0  0  0
    5.4828   -0.3170    4.7773 O   0  0  0  0  0  0  0  0  0  0  0  0
    6.3268    0.5613    5.5244 C   0  0  0  0  0  0  0  0  0  0  0  0
    1.0432   -0.9089    6.8430 C   0  0  1  0  0  0  0  0  0  0  0  0
    0.3027    0.2767    7.5974 C   0  0  0  0  0  0  0  0  0  0  0  0
    7.0022   -0.2711    0.3054 H   0  0  0  0  0  0  0  0  0  0  0  0
    5.9235   -1.6266    0.0112 H   0  0  0  0  0  0  0  0  0  0  0  0
    7.1346   -1.7181    1.2921 H   0  0  0  0  0  0  0  0  0  0  0  0
    4.2827   -2.1258    1.6664 H   0  0  0  0  0  0  0  0  0  0  0  0
    5.3783   -2.0245    3.0258 H   0  0  0  0  0  0  0  0  0  0  0  0
    2.9048   -0.1669    1.1187 H   0  0  0  0  0  0  0  0  0  0  0  0
    1.3355    1.5979    1.5839 H   0  0  0  0  0  0  0  0  0  0  0  0
    2.4731    2.1038    4.1055 H   0  0  0  0  0  0  0  0  0  0  0  0
   -0.1650    4.2498    2.7656 H   0  0  0  0  0  0  0  0  0  0  0  0
   -1.6802    4.4671    6.0316 H   0  0  0  0  0  0  0  0  0  0  0  0
   -1.4086    2.8167    7.8647 H   0  0  0  0  0  0  0  0  0  0  0  0
   -0.9265    0.3851    3.8089 H   0  0  0  0  0  0  0  0  0  0  0  0
   -0.0797   -0.9527    3.3018 H   0  0  0  0  0  0  0  0  0  0  0  0
   -1.6085   -0.4931    5.8328 H   0  0  0  0  0  0  0  0  0  0  0  0
   -1.6875   -1.8391    4.7631 H   0  0  0  0  0  0  0  0  0  0  0  0
   -0.6386   -2.2262    7.0067 H   0  0  0  0  0  0  0  0  0  0  0  0
    0.9629   -3.9335    6.2041 H   0  0  0  0  0  0  0  0  0  0  0  0
   -0.5768   -3.8925    5.5253 H   0  0  0  0  0  0  0  0  0  0  0  0
    0.7075   -4.6343    3.7908 H   0  0  0  0  0  0  0  0  0  0  0  0
    0.1915   -3.0799    3.3049 H   0  0  0  0  0  0  0  0  0  0  0  0
    4.3104   -3.8488    3.7260 H   0  0  0  0  0  0  0  0  0  0  0  0
    3.2333   -4.5445    4.9146 H   0  0  0  0  0  0  0  0  0  0  0  0
    2.2359   -6.0128    3.0187 H   0  0  0  0  0  0  0  0  0  0  0  0
    5.2819   -6.2492    3.5095 H   0  0  0  0  0  0  0  0  0  0  0  0
    4.1451   -7.5574    2.8948 H   0  0  0  0  0  0  0  0  0  0  0  0
    3.5701   -6.1637    0.9082 H   0  0  0  0  0  0  0  0  0  0  0  0
    4.7094   -4.8398    1.4989 H   0  0  0  0  0  0  0  0  0  0  0  0
    1.7593   -1.5202    3.5063 H   0  0  0  0  0  0  0  0  0  0  0  0
    2.4851   -2.5955    5.9365 H   0  0  0  0  0  0  0  0  0  0  0  0
    3.7872   -1.8368    5.6419 H   0  0  0  0  0  0  0  0  0  0  0  0
    3.1954    1.4290    6.0002 H   0  0  0  0  0  0  0  0  0  0  0  0
    3.9076    0.0185    6.6255 H   0  0  0  0  0  0  0  0  0  0  0  0
    4.4201    1.1805    3.9391 H   0  0  0  0  0  0  0  0  0  0  0  0
    7.2726    0.0720    5.7536 H   0  0  0  0  0  0  0  0  0  0  0  0
    5.8936    0.8780    6.4724 H   0  0  0  0  0  0  0  0  0  0  0  0
    6.5706    1.4490    4.9595 H   0  0  0  0  0  0  0  0  0  0  0  0
    1.5982   -1.4673    7.6014 H   0  0  0  0  0  0  0  0  0  0  0  0
    0.9920    0.6668    8.3449 H   0  0  0  0  0  0  0  0  0  0  0  0
   -0.5600   -0.0813    8.1540 H   0  0  0  0  0  0  0  0  0  0  0  0
    2.2519   -3.2484    2.4927 H   0  0  0  0  0  0  0  0  0  0  0  0
  1  2  1  0
  1 35  1  0
  1 36  1  0
  1 37  1  0
  2  3  1  0
  4  3  1  6
  3 38  1  0
  3 39  1  0
  4 26  1  0
  4 30  1  0
  4  5  1  0
  5  6  2  3
  5 40  1  0
  6  7  1  0
  6 41  1  0
  7 15  1  0
  7  8  1  0
  7 42  1  1
  8 14  2  0
  8  9  1  0
  9 10  1  0
  9 11  2  0
 10 43  1  0
 11 12  1  0
 11 44  1  0
 12 13  2  0
 12 45  1  0
 13 34  1  0
 13 14  1  0
 14 15  1  0
 15 28  1  0
 15 16  1  6
 16 17  1  0
 16 46  1  0
 16 47  1  0
 17 18  1  0
 17 48  1  0
 17 49  1  0
 18 33  1  0
 18 19  1  0
 18 50  1  1
 19 20  1  0
 19 51  1  0
 19 52  1  0
 20 21  1  0
 20 53  1  0
 20 54  1  0
 21 22  1  0
 21 26  1  0
 21 74  1  6
 22 23  1  0
 22 55  1  0
 22 56  1  0
 23 25  1  0
 23 24  1  0
 23 57  1  0
 24 25  1  0
 24 58  1  0
 24 59  1  0
 25 60  1  0
 25 61  1  0
 26 27  1  0
 26 62  1  6
 27 28  1  0
 27 63  1  0
 27 64  1  0
 28 29  1  1
 28 33  1  0
 29 30  1  0
 29 65  1  0
 29 66  1  0
 30 31  1  0
 30 67  1  6
 31 32  1  0
 32 68  1  0
 32 69  1  0
 32 70  1  0
 33 34  1  0
 33 71  1  1
 34 72  1  0
 34 73  1  0
M  CHG  1  21   1
M  END
>  <i_m_ct_stereo_status>  (347) 
1

>  <s_m_source_file>  (347) 
/var/tmp/pbs.5076255.sched01/tmparsu8qf0/123n9qi1oz7.sdf

>  <i_m_source_file_index>  (347) 
25

>  <i_lp_mmshare_version>  (347) 
48012

>  <i_f3d_flags>  (347) 
0

>  <s_epik_input>  (347) 
W0NAQF0xMjNbQ0BAXTQ1W0NAQEhdNltDQEBIXShbQ0gyXVtDSDJdMylbQ0gyXVtDSDJdTihbQ0gyXVtDSF03W0NIMl1bQ0gyXTcpW0NAQEhdKFtDSDJdNClbQ0BdKFtDSDJdT1tDSDNdKShbQ0BASF0oW0NIMl01KU9bQ0gzXSkvW0NIXT1bQ0hdXFtDQEhdMWM4YzJjKFtDSDJdNilbY0hdW2NIXWM4W09IXQ==

>  <s_epik_cmdline>  (347) 
J2VwaWtfcHl0aG9uJywgJy1waHQnLCAnMi4wJywgJy1waCcsICc3LjAnLCAnLXRuJywgJzgnLCAnLW1hJywgJzIwMCcsICctaW1hZScsICc8aW5maWxlLm1hZT4nLCAnLW9tYWUnLCAnPG91dGZpbGUubWFlPic=

>  <r_lp_tautomer_probability>  (347) 
1

>  <r_epik_Ionization_Penalty>  (347) 
0.0031265

>  <r_epik_Ionization_Penalty_Charging>  (347) 
0.00303042

>  <r_epik_Ionization_Penalty_Neutral>  (347) 
9.60801e-05

>  <r_epik_State_Penalty>  (347) 
0.00212919

>  <r_epik_Charging_Adjusted_Penalty>  (347) 
0.00515961

>  <i_epik_Tot_Q>  (347) 
1

>  <i_epik_Tot_abs_Q>  (347) 
1

>  <s_lp_Force_Field>  (347) 
OPLS3e

>  <r_lp_Energy>  (347) 
237.252

>  <b_lp_Chiralities_Consistent>  (347) 
1

>  <s_lp_Variant>  (347) 
108:0-1

>  <s_i_glide_gridfile>  (347) 
pfpi4k_grid

>  <i_i_glide_lignum>  (347) 
25

>  <i_i_glide_rotatable_bonds>  (347) 
6

>  <r_i_docking_score>  (347) 
-2.63695

>  <r_i_glide_ligand_efficiency>  (347) 
-0.0775572

>  <r_i_glide_ligand_efficiency_sa>  (347) 
-0.251255

>  <r_i_glide_ligand_efficiency_ln>  (347) 
-0.582575

>  <r_i_glide_gscore>  (347) 
-2.63695

>  <r_i_glide_lipo>  (347) 
-0.336581

>  <r_i_glide_hbond>  (347) 
-0.256363

>  <r_i_glide_metal>  (347) 
-0

>  <r_i_glide_rewards>  (347) 
-0.254703

>  <r_i_glide_evdw>  (347) 
-21.4536

>  <r_i_glide_ecoul>  (347) 
-6.65988

>  <r_i_glide_erotb>  (347) 
0.282363

>  <r_i_glide_esite>  (347) 
0

>  <r_i_glide_emodel>  (347) 
-30.0428

>  <r_i_glide_energy>  (347) 
-28.1135

>  <r_i_glide_einternal>  (347) 
1.09375

>  <r_i_glide_intrahb_reward>  (347) 
-0

>  <i_i_glide_confnum>  (347) 
4

>  <i_i_glide_posenum>  (347) 
15

>  <r_i_glide_eff_state_penalty>  (347) 
0

>  <ligand_id>  (347) 
108

>  <original_smiles>  (347) 
COCC12C=CC3c4c(O)ccc5c4C34CCC3CCN(CC6CC6)C1CC4(CC2OC)C3C5

>  <smiles>  (347) 
[H]Oc1c([H])c([H])c2c3c1C1([H])C([H])=C([H])C4(C([H])([H])OC([H])([H])[H])C([H])(OC([H])([H])[H])C([H])([H])C56C([H])([H])C4([H])[N+]([H])(C([H])([H])C4([H])C([H])([H])C4([H])[H])C([H])([H])C([H])([H])C([H])(C([H])([H])C([H])([H])C315)C6([H])C2([H])[H]

$$$$
108:1:0
     RDKit          3D

 74 81  0  0  1  0  0  0  0  0999 V2000
    7.7865   -3.2691   -0.8983 C   0  0  0  0  0  0  0  0  0  0  0  0
    6.4083   -3.0044   -1.1615 O   0  0  0  0  0  0  0  0  0  0  0  0
    5.7229   -2.3071   -0.1257 C   0  0  0  0  0  0  0  0  0  0  0  0
    4.9766   -3.2717    0.8313 C   0  0  1  0  0  0  0  0  0  0  0  0
    6.0017   -4.3625    1.3202 C   0  0  0  0  0  0  0  0  0  0  0  0
    5.7515   -5.6913    1.3221 C   0  0  0  0  0  0  0  0  0  0  0  0
    5.4011   -6.4794    2.6286 C   0  0  2  0  0  0  0  0  0  0  0  0
    4.6311   -7.7891    2.4328 C   0  0  0  0  0  0  0  0  0  0  0  0
    4.4286   -8.9871    1.7286 C   0  0  0  0  0  0  0  0  0  0  0  0
    5.4292   -9.6383    1.1132 O   0  0  0  0  0  0  0  0  0  0  0  0
    3.0693   -9.4992    1.7373 C   0  0  0  0  0  0  0  0  0  0  0  0
    1.9676   -8.8040    2.2950 C   0  0  0  0  0  0  0  0  0  0  0  0
    2.1637   -7.5639    2.9292 C   0  0  0  0  0  0  0  0  0  0  0  0
    3.4486   -7.1773    3.0150 C   0  0  0  0  0  0  0  0  0  0  0  0
    4.0772   -5.9014    3.3555 C   0  0  1  0  0  0  0  0  0  0  0  0
    4.0276   -5.6452    4.9312 C   0  0  0  0  0  0  0  0  0  0  0  0
    2.8169   -4.8156    5.5382 C   0  0  0  0  0  0  0  0  0  0  0  0
    1.7359   -4.2141    4.5726 C   0  0  1  0  0  0  0  0  0  0  0  0
    1.7086   -2.6699    4.2159 C   0  0  0  0  0  0  0  0  0  0  0  0
    1.8660   -2.1728    2.7005 C   0  0  0  0  0  0  0  0  0  0  0  0
    3.2320   -1.5843    2.2444 N   0  0  2  0  0  0  0  0  0  0  0  0
    3.2014   -0.4569    1.2741 C   0  0  0  0  0  0  0  0  0  0  0  0
    2.3597    0.7560    1.7067 C   0  0  0  0  0  0  0  0  0  0  0  0
    1.7404    0.8547    3.0904 C   0  0  0  0  0  0  0  0  0  0  0  0
    0.8545    0.6601    1.8584 C   0  0  0  0  0  0  0  0  0  0  0  0
    4.4329   -2.5218    2.1587 C   0  0  1  0  0  0  0  0  0  0  0  0
    4.1939   -3.5769    3.1694 C   0  0  0  0  0  0  0  0  0  0  0  0
    3.2574   -4.7964    2.7030 C   0  0  1  0  0  0  0  0  0  0  0  0
    2.9831   -4.8638    1.1147 C   0  0  0  0  0  0  0  0  0  0  0  0
    3.7943   -3.9754    0.1370 C   0  0  1  0  0  0  0  0  0  0  0  0
    2.9267   -3.0161   -0.4542 O   0  0  0  0  0  0  0  0  0  0  0  0
    2.2317   -3.4594   -1.6148 C   0  0  0  0  0  0  0  0  0  0  0  0
    1.7882   -4.9950    3.2887 C   0  0  1  0  0  0  0  0  0  0  0  0
    1.2225   -6.4660    3.4373 C   0  0  0  0  0  0  0  0  0  0  0  0
    8.2263   -3.8405   -1.7179 H   0  0  0  0  0  0  0  0  0  0  0  0
    7.9582   -3.8594   -0.0003 H   0  0  0  0  0  0  0  0  0  0  0  0
    8.3425   -2.3391   -0.7756 H   0  0  0  0  0  0  0  0  0  0  0  0
    6.4155   -1.6568    0.4117 H   0  0  0  0  0  0  0  0  0  0  0  0
    5.0209   -1.6339   -0.6138 H   0  0  0  0  0  0  0  0  0  0  0  0
    6.6182   -3.9690    2.1238 H   0  0  0  0  0  0  0  0  0  0  0  0
    5.1539   -6.0942    0.5146 H   0  0  0  0  0  0  0  0  0  0  0  0
    6.2579   -6.6175    3.2908 H   0  0  0  0  0  0  0  0  0  0  0  0
    5.1509  -10.5170    0.8365 H   0  0  0  0  0  0  0  0  0  0  0  0
    2.9075  -10.4506    1.2661 H   0  0  0  0  0  0  0  0  0  0  0  0
    0.9675   -9.2211    2.1807 H   0  0  0  0  0  0  0  0  0  0  0  0
    4.1055   -6.5811    5.4556 H   0  0  0  0  0  0  0  0  0  0  0  0
    4.9389   -5.1359    5.2379 H   0  0  0  0  0  0  0  0  0  0  0  0
    2.2836   -5.4948    6.2021 H   0  0  0  0  0  0  0  0  0  0  0  0
    3.1723   -4.0335    6.2118 H   0  0  0  0  0  0  0  0  0  0  0  0
    0.7633   -4.4013    5.0423 H   0  0  0  0  0  0  0  0  0  0  0  0
    0.7157   -2.3487    4.5056 H   0  0  0  0  0  0  0  0  0  0  0  0
    2.3208   -2.0828    4.9120 H   0  0  0  0  0  0  0  0  0  0  0  0
    1.4252   -2.7533    1.8838 H   0  0  0  0  0  0  0  0  0  0  0  0
    1.1416   -1.4121    2.7859 H   0  0  0  0  0  0  0  0  0  0  0  0
    4.2337   -0.0905    1.1298 H   0  0  0  0  0  0  0  0  0  0  0  0
    2.9061   -0.7721    0.2624 H   0  0  0  0  0  0  0  0  0  0  0  0
    2.6903    1.6733    1.2271 H   0  0  0  0  0  0  0  0  0  0  0  0
    2.0599    0.0343    3.7425 H   0  0  0  0  0  0  0  0  0  0  0  0
    1.7033    1.8339    3.5478 H   0  0  0  0  0  0  0  0  0  0  0  0
    0.2383    1.5031    1.5982 H   0  0  0  0  0  0  0  0  0  0  0  0
    0.4830   -0.3102    1.4998 H   0  0  0  0  0  0  0  0  0  0  0  0
    5.2741   -1.9081    2.5200 H   0  0  0  0  0  0  0  0  0  0  0  0
    5.1740   -3.8848    3.5266 H   0  0  0  0  0  0  0  0  0  0  0  0
    3.9914   -3.0991    4.1201 H   0  0  0  0  0  0  0  0  0  0  0  0
    2.9903   -5.8906    0.7631 H   0  0  0  0  0  0  0  0  0  0  0  0
    1.9556   -4.5794    0.9023 H   0  0  0  0  0  0  0  0  0  0  0  0
    4.2101   -4.5771   -0.6732 H   0  0  0  0  0  0  0  0  0  0  0  0
    1.5870   -2.6704   -1.9928 H   0  0  0  0  0  0  0  0  0  0  0  0
    1.6008   -4.3213   -1.4054 H   0  0  0  0  0  0  0  0  0  0  0  0
    2.9115   -3.7179   -2.4254 H   0  0  0  0  0  0  0  0  0  0  0  0
    1.0081   -4.5552    2.6785 H   0  0  0  0  0  0  0  0  0  0  0  0
    0.2697   -6.5674    2.9008 H   0  0  0  0  0  0  0  0  0  0  0  0
    0.9943   -6.7062    4.4792 H   0  0  0  0  0  0  0  0  0  0  0  0
    3.5001   -1.0512    3.0805 H   0  0  0  0  0  0  0  0  0  0  0  0
  1  2  1  0
  1 35  1  0
  1 36  1  0
  1 37  1  0
  2  3  1  0
  4  3  1  6
  3 38  1  0
  3 39  1  0
  4 26  1  0
  4 30  1  0
  4  5  1  0
  5  6  2  3
  5 40  1  0
  6  7  1  0
  6 41  1  0
  7 15  1  0
  7  8  1  0
  7 42  1  1
  8 14  2  0
  8  9  1  0
  9 10  1  0
  9 11  2  0
 10 43  1  0
 11 12  1  0
 11 44  1  0
 12 13  2  0
 12 45  1  0
 13 34  1  0
 13 14  1  0
 14 15  1  0
 15 28  1  0
 15 16  1  1
 16 17  1  0
 16 46  1  0
 16 47  1  0
 17 18  1  0
 17 48  1  0
 17 49  1  0
 18 33  1  0
 18 19  1  0
 18 50  1  1
 19 20  1  0
 19 51  1  0
 19 52  1  0
 20 21  1  0
 20 53  1  0
 20 54  1  0
 21 22  1  0
 21 26  1  0
 21 74  1  1
 22 23  1  0
 22 55  1  0
 22 56  1  0
 23 25  1  0
 23 24  1  0
 23 57  1  0
 24 25  1  0
 24 58  1  0
 24 59  1  0
 25 60  1  0
 25 61  1  0
 26 27  1  0
 26 62  1  1
 27 28  1  0
 27 63  1  0
 27 64  1  0
 28 29  1  6
 28 33  1  0
 29 30  1  0
 29 65  1  0
 29 66  1  0
 30 31  1  0
 30 67  1  6
 31 32  1  0
 32 68  1  0
 32 69  1  0
 32 70  1  0
 33 34  1  0
 33 71  1  6
 34 72  1  0
 34 73  1  0
M  CHG  1  21   1
M  END
>  <i_m_ct_stereo_status>  (348) 
1

>  <s_m_source_file>  (348) 
/var/tmp/pbs.5076255.sched01/tmparsu8qf0/123n9qi1oz7.sdf

>  <i_m_source_file_index>  (348) 
26

>  <i_lp_mmshare_version>  (348) 
48012

>  <i_f3d_flags>  (348) 
2

>  <s_epik_input>  (348) 
W0NAQF0xMjNbQ0BAXTQ1W0NAQEhdNltDQEBIXShbQ0gyXVtDSDJdMylbQ0gyXVtDSDJdTihbQ0gyXVtDSF03W0NIMl1bQ0gyXTcpW0NAQEhdKFtDSDJdNClbQ0BdKFtDSDJdT1tDSDNdKShbQ0BASF0oW0NIMl01KU9bQ0gzXSkvW0NIXT1bQ0hdXFtDQEhdMWM4YzJjKFtDSDJdNilbY0hdW2NIXWM4W09IXQ==

>  <s_epik_cmdline>  (348) 
J2VwaWtfcHl0aG9uJywgJy1waHQnLCAnMi4wJywgJy1waCcsICc3LjAnLCAnLXRuJywgJzgnLCAnLW1hJywgJzIwMCcsICctaW1hZScsICc8aW5maWxlLm1hZT4nLCAnLW9tYWUnLCAnPG91dGZpbGUubWFlPic=

>  <r_lp_tautomer_probability>  (348) 
1

>  <r_epik_Ionization_Penalty>  (348) 
0.0031265

>  <r_epik_Ionization_Penalty_Charging>  (348) 
0.00303042

>  <r_epik_Ionization_Penalty_Neutral>  (348) 
9.60801e-05

>  <r_epik_State_Penalty>  (348) 
0.00212919

>  <r_epik_Charging_Adjusted_Penalty>  (348) 
0.00515961

>  <i_epik_Tot_Q>  (348) 
1

>  <i_epik_Tot_abs_Q>  (348) 
1

>  <s_lp_Force_Field>  (348) 
OPLS3e

>  <r_lp_Energy>  (348) 
221.38

>  <b_lp_Chiralities_Consistent>  (348) 
0

>  <s_lp_Variant>  (348) 
108:0-2

>  <s_i_glide_gridfile>  (348) 
pfpi4k_grid

>  <i_i_glide_lignum>  (348) 
26

>  <i_i_glide_rotatable_bonds>  (348) 
6

>  <r_i_docking_score>  (348) 
-2.84836

>  <r_i_glide_ligand_efficiency>  (348) 
-0.0837754

>  <r_i_glide_ligand_efficiency_sa>  (348) 
-0.2714

>  <r_i_glide_ligand_efficiency_ln>  (348) 
-0.629284

>  <r_i_glide_gscore>  (348) 
-2.84836

>  <r_i_glide_lipo>  (348) 
-0.448436

>  <r_i_glide_hbond>  (348) 
-0.16

>  <r_i_glide_metal>  (348) 
-0

>  <r_i_glide_rewards>  (348) 
-0.254703

>  <r_i_glide_evdw>  (348) 
-26.0758

>  <r_i_glide_ecoul>  (348) 
-6.47715

>  <r_i_glide_erotb>  (348) 
0.282363

>  <r_i_glide_esite>  (348) 
-0.00604169

>  <r_i_glide_emodel>  (348) 
-28.2103

>  <r_i_glide_energy>  (348) 
-32.553

>  <r_i_glide_einternal>  (348) 
12.8938

>  <r_i_glide_intrahb_reward>  (348) 
-0

>  <i_i_glide_confnum>  (348) 
5

>  <i_i_glide_posenum>  (348) 
26

>  <r_i_glide_eff_state_penalty>  (348) 
0

>  <ligand_id>  (348) 
108

>  <original_smiles>  (348) 
COCC12C=CC3c4c(O)ccc5c4C34CCC3CCN(CC6CC6)C1CC4(CC2OC)C3C5

>  <smiles>  (348) 
[H]Oc1c([H])c([H])c2c3c1C1([H])C([H])=C([H])C4(C([H])([H])OC([H])([H])[H])C([H])(OC([H])([H])[H])C([H])([H])C56C([H])([H])C4([H])[N+]([H])(C([H])([H])C4([H])C([H])([H])C4([H])[H])C([H])([H])C([H])([H])C([H])(C([H])([H])C([H])([H])C315)C6([H])C2([H])[H]

$$$$
108:2:0
     RDKit          3D

 74 81  0  0  1  0  0  0  0  0999 V2000
    2.2049    2.0739    4.9747 C   0  0  0  0  0  0  0  0  0  0  0  0
    2.5458    1.1126    3.9826 O   0  0  0  0  0  0  0  0  0  0  0  0
    3.2767   -0.0017    4.4939 C   0  0  0  0  0  0  0  0  0  0  0  0
    3.6528   -1.0140    3.3575 C   0  0  1  0  0  0  0  0  0  0  0  0
    4.5411   -0.1912    2.3575 C   0  0  0  0  0  0  0  0  0  0  0  0
    5.2269   -0.3659    1.1699 C   0  0  0  0  0  0  0  0  0  0  0  0
    5.6314   -1.5518    0.2088 C   0  0  2  0  0  0  0  0  0  0  0  0
    4.9689   -1.7388   -1.1770 C   0  0  0  0  0  0  0  0  0  0  0  0
    4.2313   -1.1947   -2.2461 C   0  0  0  0  0  0  0  0  0  0  0  0
    4.4154    0.0651   -2.6893 O   0  0  0  0  0  0  0  0  0  0  0  0
    3.2741   -2.0609   -2.8929 C   0  0  0  0  0  0  0  0  0  0  0  0
    2.9370   -3.3363   -2.3743 C   0  0  0  0  0  0  0  0  0  0  0  0
    3.5763   -3.8458   -1.2194 C   0  0  0  0  0  0  0  0  0  0  0  0
    4.5884   -3.0565   -0.7610 C   0  0  0  0  0  0  0  0  0  0  0  0
    5.2270   -3.0525    0.5534 C   0  0  1  0  0  0  0  0  0  0  0  0
    6.3459   -4.1585    0.7288 C   0  0  0  0  0  0  0  0  0  0  0  0
    5.9317   -5.5523    1.3321 C   0  0  0  0  0  0  0  0  0  0  0  0
    4.4824   -5.7110    1.9094 C   0  0  1  0  0  0  0  0  0  0  0  0
    4.2742   -5.6800    3.4685 C   0  0  0  0  0  0  0  0  0  0  0  0
    3.2464   -4.6492    4.1036 C   0  0  0  0  0  0  0  0  0  0  0  0
    3.8001   -3.3902    4.7969 N   0  0  2  0  0  0  0  0  0  0  0  0
    3.1158   -2.9811    6.0683 C   0  0  0  0  0  0  0  0  0  0  0  0
    3.3087   -3.9606    7.2346 C   0  0  0  0  0  0  0  0  0  0  0  0
    4.2201   -5.1634    7.1026 C   0  0  0  0  0  0  0  0  0  0  0  0
    2.7041   -5.3557    7.2757 C   0  0  0  0  0  0  0  0  0  0  0  0
    4.4223   -2.2814    3.9577 C   0  0  1  0  0  0  0  0  0  0  0  0
    5.0757   -2.9550    2.8307 C   0  0  0  0  0  0  0  0  0  0  0  0
    4.1430   -3.2484    1.5737 C   0  0  1  0  0  0  0  0  0  0  0  0
    2.8718   -2.2996    1.4015 C   0  0  0  0  0  0  0  0  0  0  0  0
    2.4063   -1.5027    2.6110 C   0  0  1  0  0  0  0  0  0  0  0  0
    1.5004   -2.2468    3.4221 O   0  0  0  0  0  0  0  0  0  0  0  0
    0.4308   -1.4988    4.0091 C   0  0  0  0  0  0  0  0  0  0  0  0
    3.5713   -4.6909    1.2533 C   0  0  1  0  0  0  0  0  0  0  0  0
    3.3069   -5.0107   -0.2771 C   0  0  0  0  0  0  0  0  0  0  0  0
    1.6784    2.9227    4.5374 H   0  0  0  0  0  0  0  0  0  0  0  0
    3.0864    2.4713    5.4761 H   0  0  0  0  0  0  0  0  0  0  0  0
    1.5502    1.6477    5.7332 H   0  0  0  0  0  0  0  0  0  0  0  0
    4.1754    0.3637    4.9978 H   0  0  0  0  0  0  0  0  0  0  0  0
    2.6819   -0.4644    5.2715 H   0  0  0  0  0  0  0  0  0  0  0  0
    4.5834    0.8282    2.6887 H   0  0  0  0  0  0  0  0  0  0  0  0
    5.6933    0.5459    0.8166 H   0  0  0  0  0  0  0  0  0  0  0  0
    6.7009   -1.4732    0.0228 H   0  0  0  0  0  0  0  0  0  0  0  0
    4.7723    0.6347   -2.0079 H   0  0  0  0  0  0  0  0  0  0  0  0
    2.7619   -1.6944   -3.7708 H   0  0  0  0  0  0  0  0  0  0  0  0
    2.1480   -3.8972   -2.8562 H   0  0  0  0  0  0  0  0  0  0  0  0
    6.8625   -4.3189   -0.2038 H   0  0  0  0  0  0  0  0  0  0  0  0
    7.1429   -3.7661    1.3599 H   0  0  0  0  0  0  0  0  0  0  0  0
    6.0205   -6.2782    0.5251 H   0  0  0  0  0  0  0  0  0  0  0  0
    6.6607   -5.8948    2.0688 H   0  0  0  0  0  0  0  0  0  0  0  0
    4.1455   -6.7096    1.6092 H   0  0  0  0  0  0  0  0  0  0  0  0
    3.8830   -6.6542    3.7234 H   0  0  0  0  0  0  0  0  0  0  0  0
    5.2306   -5.6978    3.9949 H   0  0  0  0  0  0  0  0  0  0  0  0
    2.3138   -4.4349    3.5865 H   0  0  0  0  0  0  0  0  0  0  0  0
    2.9046   -5.2864    4.8354 H   0  0  0  0  0  0  0  0  0  0  0  0
    3.5425   -2.0258    6.4105 H   0  0  0  0  0  0  0  0  0  0  0  0
    2.0528   -2.7850    5.9068 H   0  0  0  0  0  0  0  0  0  0  0  0
    3.2880   -3.4561    8.1911 H   0  0  0  0  0  0  0  0  0  0  0  0
    4.7484   -5.2626    6.1574 H   0  0  0  0  0  0  0  0  0  0  0  0
    4.8591   -5.4209    7.9439 H   0  0  0  0  0  0  0  0  0  0  0  0
    2.4359   -5.7974    8.2388 H   0  0  0  0  0  0  0  0  0  0  0  0
    2.0188   -5.5825    6.4574 H   0  0  0  0  0  0  0  0  0  0  0  0
    5.2224   -1.8794    4.6064 H   0  0  0  0  0  0  0  0  0  0  0  0
    5.9154   -2.3051    2.6181 H   0  0  0  0  0  0  0  0  0  0  0  0
    5.6743   -3.7777    3.2014 H   0  0  0  0  0  0  0  0  0  0  0  0
    3.0457   -1.5601    0.6325 H   0  0  0  0  0  0  0  0  0  0  0  0
    2.0265   -2.8193    0.9676 H   0  0  0  0  0  0  0  0  0  0  0  0
    1.8743   -0.6446    2.2172 H   0  0  0  0  0  0  0  0  0  0  0  0
   -0.1609   -2.1490    4.6576 H   0  0  0  0  0  0  0  0  0  0  0  0
   -0.2197   -1.0656    3.2532 H   0  0  0  0  0  0  0  0  0  0  0  0
    0.7352   -0.6628    4.6309 H   0  0  0  0  0  0  0  0  0  0  0  0
    2.5725   -4.8365    1.6587 H   0  0  0  0  0  0  0  0  0  0  0  0
    2.2657   -5.3175   -0.4243 H   0  0  0  0  0  0  0  0  0  0  0  0
    3.9047   -5.8606   -0.6202 H   0  0  0  0  0  0  0  0  0  0  0  0
    4.6482   -3.7624    5.2203 H   0  0  0  0  0  0  0  0  0  0  0  0
  1  2  1  0
  1 35  1  0
  1 36  1  0
  1 37  1  0
  2  3  1  0
  4  3  1  1
  3 38  1  0
  3 39  1  0
  4 26  1  0
  4 30  1  0
  4  5  1  0
  5  6  2  3
  5 40  1  0
  6  7  1  0
  6 41  1  0
  7 15  1  0
  7  8  1  0
  7 42  1  6
  8 14  2  0
  8  9  1  0
  9 10  1  0
  9 11  2  0
 10 43  1  0
 11 12  1  0
 11 44  1  0
 12 13  2  0
 12 45  1  0
 13 34  1  0
 13 14  1  0
 14 15  1  0
 15 28  1  0
 15 16  1  6
 16 17  1  0
 16 46  1  0
 16 47  1  0
 17 18  1  0
 17 48  1  0
 17 49  1  0
 18 33  1  0
 18 19  1  0
 18 50  1  6
 19 20  1  0
 19 51  1  0
 19 52  1  0
 20 21  1  0
 20 53  1  0
 20 54  1  0
 21 22  1  0
 21 26  1  0
 21 74  1  1
 22 23  1  0
 22 55  1  0
 22 56  1  0
 23 25  1  0
 23 24  1  0
 23 57  1  0
 24 25  1  0
 24 58  1  0
 24 59  1  0
 25 60  1  0
 25 61  1  0
 26 27  1  0
 26 62  1  1
 27 28  1  0
 27 63  1  0
 27 64  1  0
 28 29  1  6
 28 33  1  0
 29 30  1  0
 29 65  1  0
 29 66  1  0
 30 31  1  0
 30 67  1  6
 31 32  1  0
 32 68  1  0
 32 69  1  0
 32 70  1  0
 33 34  1  0
 33 71  1  1
 34 72  1  0
 34 73  1  0
M  CHG  1  21   1
M  END
>  <i_m_ct_stereo_status>  (349) 
1

>  <s_m_source_file>  (349) 
/var/tmp/pbs.5076255.sched01/tmparsu8qf0/123n9qi1oz7.sdf

>  <i_m_source_file_index>  (349) 
27

>  <i_lp_mmshare_version>  (349) 
48012

>  <i_f3d_flags>  (349) 
0

>  <s_epik_input>  (349) 
W0NAQF0xMjNbQ0BAXTQ1W0NAQEhdNltDQEBIXShbQ0gyXVtDSDJdMylbQ0gyXVtDSDJdTihbQ0gyXVtDSF03W0NIMl1bQ0gyXTcpW0NAQEhdKFtDSDJdNClbQ0BdKFtDSDJdT1tDSDNdKShbQ0BASF0oW0NIMl01KU9bQ0gzXSkvW0NIXT1bQ0hdXFtDQEhdMWM4YzJjKFtDSDJdNilbY0hdW2NIXWM4W09IXQ==

>  <s_epik_cmdline>  (349) 
J2VwaWtfcHl0aG9uJywgJy1waHQnLCAnMi4wJywgJy1waCcsICc3LjAnLCAnLXRuJywgJzgnLCAnLW1hJywgJzIwMCcsICctaW1hZScsICc8aW5maWxlLm1hZT4nLCAnLW9tYWUnLCAnPG91dGZpbGUubWFlPic=

>  <r_lp_tautomer_probability>  (349) 
1

>  <r_epik_Ionization_Penalty>  (349) 
0.0031265

>  <r_epik_Ionization_Penalty_Charging>  (349) 
0.00303042

>  <r_epik_Ionization_Penalty_Neutral>  (349) 
9.60801e-05

>  <r_epik_State_Penalty>  (349) 
0.00212919

>  <r_epik_Charging_Adjusted_Penalty>  (349) 
0.00515961

>  <i_epik_Tot_Q>  (349) 
1

>  <i_epik_Tot_abs_Q>  (349) 
1

>  <s_lp_Force_Field>  (349) 
OPLS3e

>  <r_lp_Energy>  (349) 
195.857

>  <b_lp_Chiralities_Consistent>  (349) 
1

>  <s_lp_Variant>  (349) 
108:0-3

>  <s_i_glide_gridfile>  (349) 
pfpi4k_grid

>  <i_i_glide_lignum>  (349) 
27

>  <i_i_glide_rotatable_bonds>  (349) 
6

>  <r_i_docking_score>  (349) 
-1.76044

>  <r_i_glide_ligand_efficiency>  (349) 
-0.0517776

>  <r_i_glide_ligand_efficiency_sa>  (349) 
-0.167739

>  <r_i_glide_ligand_efficiency_ln>  (349) 
-0.38893

>  <r_i_glide_gscore>  (349) 
-1.76044

>  <r_i_glide_lipo>  (349) 
-0.621505

>  <r_i_glide_hbond>  (349) 
-0.32

>  <r_i_glide_metal>  (349) 
-0

>  <r_i_glide_rewards>  (349) 
-0.254703

>  <r_i_glide_evdw>  (349) 
-17.3793

>  <r_i_glide_ecoul>  (349) 
-2.82071

>  <r_i_glide_erotb>  (349) 
0.282363

>  <r_i_glide_esite>  (349) 
0

>  <r_i_glide_emodel>  (349) 
-11.5744

>  <r_i_glide_energy>  (349) 
-20.2

>  <r_i_glide_einternal>  (349) 
12.089

>  <r_i_glide_intrahb_reward>  (349) 
-0

>  <i_i_glide_confnum>  (349) 
3

>  <i_i_glide_posenum>  (349) 
8

>  <r_i_glide_eff_state_penalty>  (349) 
0

>  <ligand_id>  (349) 
108

>  <original_smiles>  (349) 
COCC12C=CC3c4c(O)ccc5c4C34CCC3CCN(CC6CC6)C1CC4(CC2OC)C3C5

>  <smiles>  (349) 
[H]Oc1c([H])c([H])c2c3c1C1([H])C([H])=C([H])C4(C([H])([H])OC([H])([H])[H])C([H])(OC([H])([H])[H])C([H])([H])C56C([H])([H])C4([H])[N+]([H])(C([H])([H])C4([H])C([H])([H])C4([H])[H])C([H])([H])C([H])([H])C([H])(C([H])([H])C([H])([H])C315)C6([H])C2([H])[H]

$$$$
108:2:1
     RDKit          3D

 74 81  0  0  1  0  0  0  0  0999 V2000
    0.9384    0.9939    2.1689 C   0  0  0  0  0  0  0  0  0  0  0  0
    0.7212    0.0248    3.1623 O   0  0  0  0  0  0  0  0  0  0  0  0
    1.9272   -0.4562    3.7375 C   0  0  0  0  0  0  0  0  0  0  0  0
    2.9123   -1.2630    2.7741 C   0  0  1  0  0  0  0  0  0  0  0  0
    3.5375   -0.1006    1.8965 C   0  0  0  0  0  0  0  0  0  0  0  0
    4.3026    0.1143    0.7946 C   0  0  0  0  0  0  0  0  0  0  0  0
    5.2680   -0.7059   -0.0896 C   0  0  2  0  0  0  0  0  0  0  0  0
    4.8577   -1.1746   -1.4961 C   0  0  0  0  0  0  0  0  0  0  0  0
    4.1681   -0.9698   -2.7005 C   0  0  0  0  0  0  0  0  0  0  0  0
    3.8343    0.2605   -3.1403 O   0  0  0  0  0  0  0  0  0  0  0  0
    3.8381   -2.1248   -3.4740 C   0  0  0  0  0  0  0  0  0  0  0  0
    4.0683   -3.4483   -2.9834 C   0  0  0  0  0  0  0  0  0  0  0  0
    4.7302   -3.6622   -1.7502 C   0  0  0  0  0  0  0  0  0  0  0  0
    5.1701   -2.5187   -1.1413 C   0  0  0  0  0  0  0  0  0  0  0  0
    5.5688   -2.2440    0.2485 C   0  0  1  0  0  0  0  0  0  0  0  0
    7.0415   -2.7195    0.5966 C   0  0  0  0  0  0  0  0  0  0  0  0
    7.2130   -4.1816    1.2066 C   0  0  0  0  0  0  0  0  0  0  0  0
    5.9282   -5.0214    1.5678 C   0  0  1  0  0  0  0  0  0  0  0  0
    5.5275   -5.1684    3.0902 C   0  0  0  0  0  0  0  0  0  0  0  0
    4.0851   -4.6736    3.5555 C   0  0  0  0  0  0  0  0  0  0  0  0
    3.9131   -3.3575    4.3121 N   0  0  2  0  0  0  0  0  0  0  0  0
    3.0457   -3.3627    5.5427 C   0  0  0  0  0  0  0  0  0  0  0  0
    3.4712   -4.1284    6.7077 C   0  0  0  0  0  0  0  0  0  0  0  0
    4.8211   -4.7256    6.6293 C   0  0  0  0  0  0  0  0  0  0  0  0
    3.5944   -5.6338    6.5874 C   0  0  0  0  0  0  0  0  0  0  0  0
    4.0571   -2.0685    3.5329 C   0  0  1  0  0  0  0  0  0  0  0  0
    5.0757   -2.3707    2.4990 C   0  0  0  0  0  0  0  0  0  0  0  0
    4.5675   -2.9771    1.1073 C   0  0  1  0  0  0  0  0  0  0  0  0
    3.0305   -2.7080    0.7444 C   0  0  0  0  0  0  0  0  0  0  0  0
    2.1095   -2.2240    1.8683 C   0  0  1  0  0  0  0  0  0  0  0  0
    1.5417   -3.3509    2.5318 O   0  0  0  0  0  0  0  0  0  0  0  0
    0.7654   -3.0774    3.6688 C   0  0  0  0  0  0  0  0  0  0  0  0
    4.7598   -4.5036    0.7452 C   0  0  1  0  0  0  0  0  0  0  0  0
    4.8677   -4.8482   -0.8072 C   0  0  0  0  0  0  0  0  0  0  0  0
    0.0451    1.4086    1.7689 H   0  0  0  0  0  0  0  0  0  0  0  0
    1.3937    0.5372    1.2893 H   0  0  0  0  0  0  0  0  0  0  0  0
    1.5499    1.8128    2.5646 H   0  0  0  0  0  0  0  0  0  0  0  0
    2.4404    0.2826    4.3086 H   0  0  0  0  0  0  0  0  0  0  0  0
    1.5461   -0.8887    4.6412 H   0  0  0  0  0  0  0  0  0  0  0  0
    3.1927    0.8622    2.1755 H   0  0  0  0  0  0  0  0  0  0  0  0
    4.3162    1.1519    0.4896 H   0  0  0  0  0  0  0  0  0  0  0  0
    6.1962   -0.1363   -0.1056 H   0  0  0  0  0  0  0  0  0  0  0  0
    2.9262    0.4764   -2.9681 H   0  0  0  0  0  0  0  0  0  0  0  0
    3.3230   -2.0100   -4.4186 H   0  0  0  0  0  0  0  0  0  0  0  0
    3.6811   -4.2867   -3.5293 H   0  0  0  0  0  0  0  0  0  0  0  0
    7.7187   -2.6062   -0.2560 H   0  0  0  0  0  0  0  0  0  0  0  0
    7.4624   -2.0048    1.3023 H   0  0  0  0  0  0  0  0  0  0  0  0
    7.7176   -4.7378    0.4225 H   0  0  0  0  0  0  0  0  0  0  0  0
    7.9499   -4.2238    2.0157 H   0  0  0  0  0  0  0  0  0  0  0  0
    6.1245   -6.0409    1.2203 H   0  0  0  0  0  0  0  0  0  0  0  0
    5.6239   -6.2394    3.3317 H   0  0  0  0  0  0  0  0  0  0  0  0
    6.2844   -4.7422    3.7428 H   0  0  0  0  0  0  0  0  0  0  0  0
    3.2332   -4.9477    2.9557 H   0  0  0  0  0  0  0  0  0  0  0  0
    3.9797   -5.4236    4.2531 H   0  0  0  0  0  0  0  0  0  0  0  0
    2.8359   -2.3145    5.8024 H   0  0  0  0  0  0  0  0  0  0  0  0
    2.1588   -3.9625    5.3925 H   0  0  0  0  0  0  0  0  0  0  0  0
    3.0627   -3.7776    7.6567 H   0  0  0  0  0  0  0  0  0  0  0  0
    5.3965   -4.5278    5.7325 H   0  0  0  0  0  0  0  0  0  0  0  0
    5.3972   -4.7311    7.5274 H   0  0  0  0  0  0  0  0  0  0  0  0
    3.3885   -6.2586    7.4179 H   0  0  0  0  0  0  0  0  0  0  0  0
    3.2253   -6.1658    5.7302 H   0  0  0  0  0  0  0  0  0  0  0  0
    4.5012   -1.3576    4.2332 H   0  0  0  0  0  0  0  0  0  0  0  0
    5.5162   -1.3918    2.3732 H   0  0  0  0  0  0  0  0  0  0  0  0
    5.9627   -2.8106    2.9390 H   0  0  0  0  0  0  0  0  0  0  0  0
    2.9329   -1.8936    0.0421 H   0  0  0  0  0  0  0  0  0  0  0  0
    2.5714   -3.5133    0.1566 H   0  0  0  0  0  0  0  0  0  0  0  0
    1.2752   -1.6808    1.4125 H   0  0  0  0  0  0  0  0  0  0  0  0
    0.4973   -3.9224    4.2790 H   0  0  0  0  0  0  0  0  0  0  0  0
    0.0502   -2.2802    3.7165 H   0  0  0  0  0  0  0  0  0  0  0  0
    1.5025   -2.6515    4.2195 H   0  0  0  0  0  0  0  0  0  0  0  0
    3.8844   -5.0734    1.0391 H   0  0  0  0  0  0  0  0  0  0  0  0
    4.1254   -5.5785   -1.0865 H   0  0  0  0  0  0  0  0  0  0  0  0
    5.8101   -5.3199   -1.0469 H   0  0  0  0  0  0  0  0  0  0  0  0
    4.7782   -3.3387    4.8225 H   0  0  0  0  0  0  0  0  0  0  0  0
  1  2  1  0
  1 35  1  0
  1 36  1  0
  1 37  1  0
  2  3  1  0
  4  3  1  1
  3 38  1  0
  3 39  1  0
  4 26  1  0
  4 30  1  0
  4  5  1  0
  5  6  2  3
  5 40  1  0
  6  7  1  0
  6 41  1  0
  7 15  1  0
  7  8  1  0
  7 42  1  6
  8 14  2  0
  8  9  1  0
  9 10  1  0
  9 11  2  0
 10 43  1  0
 11 12  1  0
 11 44  1  0
 12 13  2  0
 12 45  1  0
 13 34  1  0
 13 14  1  0
 14 15  1  0
 15 28  1  0
 15 16  1  6
 16 17  1  0
 16 46  1  0
 16 47  1  0
 17 18  1  0
 17 48  1  0
 17 49  1  0
 18 33  1  0
 18 19  1  0
 18 50  1  6
 19 20  1  0
 19 51  1  0
 19 52  1  0
 20 21  1  0
 20 53  1  0
 20 54  1  0
 21 22  1  0
 21 26  1  0
 21 74  1  1
 22 23  1  0
 22 55  1  0
 22 56  1  0
 23 25  1  0
 23 24  1  0
 23 57  1  0
 24 25  1  0
 24 58  1  0
 24 59  1  0
 25 60  1  0
 25 61  1  0
 26 27  1  0
 26 62  1  1
 27 28  1  0
 27 63  1  0
 27 64  1  0
 28 29  1  6
 28 33  1  0
 29 30  1  0
 29 65  1  0
 29 66  1  0
 30 31  1  0
 30 67  1  6
 31 32  1  0
 32 68  1  0
 32 69  1  0
 32 70  1  0
 33 34  1  0
 33 71  1  1
 34 72  1  0
 34 73  1  0
M  CHG  1  21   1
M  END
>  <i_m_ct_stereo_status>  (350) 
1

>  <s_m_source_file>  (350) 
/var/tmp/pbs.5076255.sched01/tmparsu8qf0/123n9qi1oz7.sdf

>  <i_m_source_file_index>  (350) 
27

>  <i_lp_mmshare_version>  (350) 
48012

>  <i_f3d_flags>  (350) 
0

>  <s_epik_input>  (350) 
W0NAQF0xMjNbQ0BAXTQ1W0NAQEhdNltDQEBIXShbQ0gyXVtDSDJdMylbQ0gyXVtDSDJdTihbQ0gyXVtDSF03W0NIMl1bQ0gyXTcpW0NAQEhdKFtDSDJdNClbQ0BdKFtDSDJdT1tDSDNdKShbQ0BASF0oW0NIMl01KU9bQ0gzXSkvW0NIXT1bQ0hdXFtDQEhdMWM4YzJjKFtDSDJdNilbY0hdW2NIXWM4W09IXQ==

>  <s_epik_cmdline>  (350) 
J2VwaWtfcHl0aG9uJywgJy1waHQnLCAnMi4wJywgJy1waCcsICc3LjAnLCAnLXRuJywgJzgnLCAnLW1hJywgJzIwMCcsICctaW1hZScsICc8aW5maWxlLm1hZT4nLCAnLW9tYWUnLCAnPG91dGZpbGUubWFlPic=

>  <r_lp_tautomer_probability>  (350) 
1

>  <r_epik_Ionization_Penalty>  (350) 
0.0031265

>  <r_epik_Ionization_Penalty_Charging>  (350) 
0.00303042

>  <r_epik_Ionization_Penalty_Neutral>  (350) 
9.60801e-05

>  <r_epik_State_Penalty>  (350) 
0.00212919

>  <r_epik_Charging_Adjusted_Penalty>  (350) 
0.00515961

>  <i_epik_Tot_Q>  (350) 
1

>  <i_epik_Tot_abs_Q>  (350) 
1

>  <s_lp_Force_Field>  (350) 
OPLS3e

>  <r_lp_Energy>  (350) 
195.857

>  <b_lp_Chiralities_Consistent>  (350) 
1

>  <s_lp_Variant>  (350) 
108:0-3

>  <s_i_glide_gridfile>  (350) 
pfpi4k_grid

>  <i_i_glide_lignum>  (350) 
27

>  <i_i_glide_rotatable_bonds>  (350) 
6

>  <r_i_docking_score>  (350) 
2.62537

>  <r_i_glide_ligand_efficiency>  (350) 
0.0772166

>  <r_i_glide_ligand_efficiency_sa>  (350) 
0.250152

>  <r_i_glide_ligand_efficiency_ln>  (350) 
0.580017

>  <r_i_glide_gscore>  (350) 
2.62537

>  <r_i_glide_lipo>  (350) 
-0.759772

>  <r_i_glide_hbond>  (350) 
-0.144296

>  <r_i_glide_metal>  (350) 
-0

>  <r_i_glide_rewards>  (350) 
-0.254703

>  <r_i_glide_evdw>  (350) 
-18.4134

>  <r_i_glide_ecoul>  (350) 
-3.49519

>  <r_i_glide_erotb>  (350) 
0.282363

>  <r_i_glide_esite>  (350) 
0

>  <r_i_glide_emodel>  (350) 
11.7975

>  <r_i_glide_energy>  (350) 
-21.9086

>  <r_i_glide_einternal>  (350) 
26.575

>  <r_i_glide_intrahb_reward>  (350) 
-0

>  <i_i_glide_confnum>  (350) 
3

>  <i_i_glide_posenum>  (350) 
29

>  <r_i_glide_eff_state_penalty>  (350) 
0

>  <ligand_id>  (350) 
108

>  <original_smiles>  (350) 
COCC12C=CC3c4c(O)ccc5c4C34CCC3CCN(CC6CC6)C1CC4(CC2OC)C3C5

>  <smiles>  (350) 
[H]Oc1c([H])c([H])c2c3c1C1([H])C([H])=C([H])C4(C([H])([H])OC([H])([H])[H])C([H])(OC([H])([H])[H])C([H])([H])C56C([H])([H])C4([H])[N+]([H])(C([H])([H])C4([H])C([H])([H])C4([H])[H])C([H])([H])C([H])([H])C([H])(C([H])([H])C([H])([H])C315)C6([H])C2([H])[H]

$$$$
108:3:0
     RDKit          3D

 74 81  0  0  1  0  0  0  0  0999 V2000
    5.5034  -10.7625    2.5323 C   0  0  0  0  0  0  0  0  0  0  0  0
    5.5011   -9.3464    2.6611 O   0  0  0  0  0  0  0  0  0  0  0  0
    5.1386   -8.6655    1.4654 C   0  0  0  0  0  0  0  0  0  0  0  0
    4.8986   -7.1421    1.7236 C   0  0  1  0  0  0  0  0  0  0  0  0
    4.2809   -6.5847    0.3927 C   0  0  0  0  0  0  0  0  0  0  0  0
    4.2169   -5.2991   -0.0754 C   0  0  0  0  0  0  0  0  0  0  0  0
    4.8391   -4.1712    0.6679 C   0  0  1  0  0  0  0  0  0  0  0  0
    4.7322   -2.6499    0.6026 C   0  0  0  0  0  0  0  0  0  0  0  0
    4.7913   -1.3965   -0.0310 C   0  0  0  0  0  0  0  0  0  0  0  0
    4.7792   -1.2205   -1.3822 O   0  0  0  0  0  0  0  0  0  0  0  0
    4.7809   -0.2833    0.8749 C   0  0  0  0  0  0  0  0  0  0  0  0
    4.7947   -0.4084    2.3189 C   0  0  0  0  0  0  0  0  0  0  0  0
    4.6895   -1.6639    2.9444 C   0  0  0  0  0  0  0  0  0  0  0  0
    4.5782   -2.6759    2.0175 C   0  0  0  0  0  0  0  0  0  0  0  0
    4.2123   -4.0869    2.1267 C   0  0  1  0  0  0  0  0  0  0  0  0
    2.6377   -3.9100    2.1462 C   0  0  0  0  0  0  0  0  0  0  0  0
    2.0678   -3.3531    3.4503 C   0  0  0  0  0  0  0  0  0  0  0  0
    2.7836   -3.9547    4.6656 C   0  0  1  0  0  0  0  0  0  0  0  0
    2.0691   -5.3301    5.0866 C   0  0  0  0  0  0  0  0  0  0  0  0
    1.7137   -6.5521    4.0968 C   0  0  0  0  0  0  0  0  0  0  0  0
    2.7626   -7.5588    3.5998 N   0  0  1  0  0  0  0  0  0  0  0  0
    2.1883   -8.7037    2.8472 C   0  0  0  0  0  0  0  0  0  0  0  0
    1.1131   -9.5187    3.5742 C   0  0  0  0  0  0  0  0  0  0  0  0
    1.1003  -11.0348    3.4576 C   0  0  0  0  0  0  0  0  0  0  0  0
    0.0391  -10.2283    2.7733 C   0  0  0  0  0  0  0  0  0  0  0  0
    3.8905   -6.8441    2.9349 C   0  0  1  0  0  0  0  0  0  0  0  0
    4.6105   -6.0915    3.9671 C   0  0  0  0  0  0  0  0  0  0  0  0
    4.8912   -4.6861    3.4017 C   0  0  1  0  0  0  0  0  0  0  0  0
    6.3283   -5.0702    2.9536 C   0  0  0  0  0  0  0  0  0  0  0  0
    6.3326   -6.4006    2.0221 C   0  0  1  0  0  0  0  0  0  0  0  0
    7.2105   -7.3172    2.6834 O   0  0  0  0  0  0  0  0  0  0  0  0
    8.6023   -7.0123    2.6283 C   0  0  0  0  0  0  0  0  0  0  0  0
    4.3837   -3.7589    4.5640 C   0  0  1  0  0  0  0  0  0  0  0  0
    4.7513   -2.2302    4.3715 C   0  0  0  0  0  0  0  0  0  0  0  0
    5.8739  -11.2221    3.4478 H   0  0  0  0  0  0  0  0  0  0  0  0
    6.1174  -11.1240    1.7033 H   0  0  0  0  0  0  0  0  0  0  0  0
    4.4833  -11.1137    2.3953 H   0  0  0  0  0  0  0  0  0  0  0  0
    5.9203   -8.8041    0.7166 H   0  0  0  0  0  0  0  0  0  0  0  0
    4.2590   -9.1249    1.0168 H   0  0  0  0  0  0  0  0  0  0  0  0
    3.8693   -7.3358   -0.2538 H   0  0  0  0  0  0  0  0  0  0  0  0
    3.7964   -5.0593   -1.0355 H   0  0  0  0  0  0  0  0  0  0  0  0
    5.9135   -4.2919    0.5669 H   0  0  0  0  0  0  0  0  0  0  0  0
    4.4927   -0.3487   -1.6106 H   0  0  0  0  0  0  0  0  0  0  0  0
    4.7380    0.7142    0.4790 H   0  0  0  0  0  0  0  0  0  0  0  0
    4.8609    0.4785    2.9309 H   0  0  0  0  0  0  0  0  0  0  0  0
    2.3213   -3.2251    1.3566 H   0  0  0  0  0  0  0  0  0  0  0  0
    2.0632   -4.7872    1.8641 H   0  0  0  0  0  0  0  0  0  0  0  0
    2.1836   -2.2637    3.4549 H   0  0  0  0  0  0  0  0  0  0  0  0
    0.9899   -3.5063    3.4913 H   0  0  0  0  0  0  0  0  0  0  0  0
    2.5058   -3.2890    5.4827 H   0  0  0  0  0  0  0  0  0  0  0  0
    2.5093   -5.7027    6.0111 H   0  0  0  0  0  0  0  0  0  0  0  0
    1.0870   -5.0057    5.4317 H   0  0  0  0  0  0  0  0  0  0  0  0
    0.9979   -7.1030    4.6992 H   0  0  0  0  0  0  0  0  0  0  0  0
    1.1118   -6.1924    3.2643 H   0  0  0  0  0  0  0  0  0  0  0  0
    1.8307   -8.4008    1.8627 H   0  0  0  0  0  0  0  0  0  0  0  0
    2.9821   -9.4173    2.6898 H   0  0  0  0  0  0  0  0  0  0  0  0
    0.8239   -9.1865    4.5716 H   0  0  0  0  0  0  0  0  0  0  0  0
    1.8547  -11.5190    2.8385 H   0  0  0  0  0  0  0  0  0  0  0  0
    0.7988  -11.5968    4.3389 H   0  0  0  0  0  0  0  0  0  0  0  0
   -0.9608  -10.2502    3.2035 H   0  0  0  0  0  0  0  0  0  0  0  0
    0.0805  -10.1807    1.6897 H   0  0  0  0  0  0  0  0  0  0  0  0
    3.2146   -6.2464    2.3904 H   0  0  0  0  0  0  0  0  0  0  0  0
    4.2172   -6.1278    4.9635 H   0  0  0  0  0  0  0  0  0  0  0  0
    5.4723   -6.6850    4.2699 H   0  0  0  0  0  0  0  0  0  0  0  0
    6.8291   -4.2536    2.4390 H   0  0  0  0  0  0  0  0  0  0  0  0
    6.9278   -5.2249    3.8463 H   0  0  0  0  0  0  0  0  0  0  0  0
    6.8054   -6.1967    1.0574 H   0  0  0  0  0  0  0  0  0  0  0  0
    9.1499   -7.7803    3.1743 H   0  0  0  0  0  0  0  0  0  0  0  0
    8.8518   -6.0560    3.0824 H   0  0  0  0  0  0  0  0  0  0  0  0
    8.9578   -6.9963    1.6013 H   0  0  0  0  0  0  0  0  0  0  0  0
    4.8169   -4.0733    5.5139 H   0  0  0  0  0  0  0  0  0  0  0  0
    5.7762   -2.0978    4.7124 H   0  0  0  0  0  0  0  0  0  0  0  0
    4.1440   -1.5905    5.0147 H   0  0  0  0  0  0  0  0  0  0  0  0
    3.1794   -7.9868    4.4196 H   0  0  0  0  0  0  0  0  0  0  0  0
  1  2  1  0
  1 35  1  0
  1 36  1  0
  1 37  1  0
  2  3  1  0
  4  3  1  6
  3 38  1  0
  3 39  1  0
  4 26  1  0
  4 30  1  0
  4  5  1  0
  5  6  2  3
  5 40  1  0
  6  7  1  0
  6 41  1  0
  7 15  1  0
  7  8  1  0
  7 42  1  1
  8 14  2  0
  8  9  1  0
  9 10  1  0
  9 11  2  0
 10 43  1  0
 11 12  1  0
 11 44  1  0
 12 13  2  0
 12 45  1  0
 13 34  1  0
 13 14  1  0
 14 15  1  0
 15 28  1  0
 15 16  1  6
 16 17  1  0
 16 46  1  0
 16 47  1  0
 17 18  1  0
 17 48  1  0
 17 49  1  0
 18 33  1  0
 18 19  1  0
 18 50  1  1
 19 20  1  0
 19 51  1  0
 19 52  1  0
 20 21  1  0
 20 53  1  0
 20 54  1  0
 21 22  1  0
 21 26  1  0
 21 74  1  1
 22 23  1  0
 22 55  1  0
 22 56  1  0
 23 25  1  0
 23 24  1  0
 23 57  1  0
 24 25  1  0
 24 58  1  0
 24 59  1  0
 25 60  1  0
 25 61  1  0
 26 27  1  0
 26 62  1  6
 27 28  1  0
 27 63  1  0
 27 64  1  0
 28 29  1  6
 28 33  1  0
 29 30  1  0
 29 65  1  0
 29 66  1  0
 30 31  1  0
 30 67  1  6
 31 32  1  0
 32 68  1  0
 32 69  1  0
 32 70  1  0
 33 34  1  0
 33 71  1  1
 34 72  1  0
 34 73  1  0
M  CHG  1  21   1
M  END
>  <i_m_ct_stereo_status>  (351) 
1

>  <s_m_source_file>  (351) 
/var/tmp/pbs.5076255.sched01/tmparsu8qf0/123n9qi1oz7.sdf

>  <i_m_source_file_index>  (351) 
28

>  <i_lp_mmshare_version>  (351) 
48012

>  <i_f3d_flags>  (351) 
0

>  <s_epik_input>  (351) 
W0NAQF0xMjNbQ0BAXTQ1W0NAQEhdNltDQEBIXShbQ0gyXVtDSDJdMylbQ0gyXVtDSDJdTihbQ0gyXVtDSF03W0NIMl1bQ0gyXTcpW0NAQEhdKFtDSDJdNClbQ0BdKFtDSDJdT1tDSDNdKShbQ0BASF0oW0NIMl01KU9bQ0gzXSkvW0NIXT1bQ0hdXFtDQEhdMWM4YzJjKFtDSDJdNilbY0hdW2NIXWM4W09IXQ==

>  <s_epik_cmdline>  (351) 
J2VwaWtfcHl0aG9uJywgJy1waHQnLCAnMi4wJywgJy1waCcsICc3LjAnLCAnLXRuJywgJzgnLCAnLW1hJywgJzIwMCcsICctaW1hZScsICc8aW5maWxlLm1hZT4nLCAnLW9tYWUnLCAnPG91dGZpbGUubWFlPic=

>  <r_lp_tautomer_probability>  (351) 
1

>  <r_epik_Ionization_Penalty>  (351) 
0.0031265

>  <r_epik_Ionization_Penalty_Charging>  (351) 
0.00303042

>  <r_epik_Ionization_Penalty_Neutral>  (351) 
9.60801e-05

>  <r_epik_State_Penalty>  (351) 
0.00212919

>  <r_epik_Charging_Adjusted_Penalty>  (351) 
0.00515961

>  <i_epik_Tot_Q>  (351) 
1

>  <i_epik_Tot_abs_Q>  (351) 
1

>  <s_lp_Force_Field>  (351) 
OPLS3e

>  <r_lp_Energy>  (351) 
241.947

>  <b_lp_Chiralities_Consistent>  (351) 
1

>  <s_lp_Variant>  (351) 
108:0-4

>  <s_i_glide_gridfile>  (351) 
pfpi4k_grid

>  <i_i_glide_lignum>  (351) 
28

>  <i_i_glide_rotatable_bonds>  (351) 
6

>  <r_i_docking_score>  (351) 
-2.65319

>  <r_i_glide_ligand_efficiency>  (351) 
-0.0780349

>  <r_i_glide_ligand_efficiency_sa>  (351) 
-0.252803

>  <r_i_glide_ligand_efficiency_ln>  (351) 
-0.586163

>  <r_i_glide_gscore>  (351) 
-2.65319

>  <r_i_glide_lipo>  (351) 
-1.01637

>  <r_i_glide_hbond>  (351) 
0

>  <r_i_glide_metal>  (351) 
-0

>  <r_i_glide_rewards>  (351) 
-0.254703

>  <r_i_glide_evdw>  (351) 
-20.3025

>  <r_i_glide_ecoul>  (351) 
-4.32066

>  <r_i_glide_erotb>  (351) 
0.282363

>  <r_i_glide_esite>  (351) 
-0.0012485

>  <r_i_glide_emodel>  (351) 
-27.2704

>  <r_i_glide_energy>  (351) 
-24.6232

>  <r_i_glide_einternal>  (351) 
2.03594

>  <r_i_glide_intrahb_reward>  (351) 
-0

>  <i_i_glide_confnum>  (351) 
4

>  <i_i_glide_posenum>  (351) 
20

>  <r_i_glide_eff_state_penalty>  (351) 
0

>  <ligand_id>  (351) 
108

>  <original_smiles>  (351) 
COCC12C=CC3c4c(O)ccc5c4C34CCC3CCN(CC6CC6)C1CC4(CC2OC)C3C5

>  <smiles>  (351) 
[H]Oc1c([H])c([H])c2c3c1C1([H])C([H])=C([H])C4(C([H])([H])OC([H])([H])[H])C([H])(OC([H])([H])[H])C([H])([H])C56C([H])([H])C4([H])[N+]([H])(C([H])([H])C4([H])C([H])([H])C4([H])[H])C([H])([H])C([H])([H])C([H])(C([H])([H])C([H])([H])C315)C6([H])C2([H])[H]

$$$$
108:3:1
     RDKit          3D

 74 81  0  0  1  0  0  0  0  0999 V2000
    5.5941  -11.5625    3.1936 C   0  0  0  0  0  0  0  0  0  0  0  0
    5.3833  -10.1638    3.2614 O   0  0  0  0  0  0  0  0  0  0  0  0
    5.3192   -9.5419    1.9869 C   0  0  0  0  0  0  0  0  0  0  0  0
    5.0139   -8.0108    2.1231 C   0  0  1  0  0  0  0  0  0  0  0  0
    4.5855   -7.5435    0.6885 C   0  0  0  0  0  0  0  0  0  0  0  0
    4.6127   -6.2964    0.1413 C   0  0  0  0  0  0  0  0  0  0  0  0
    5.1674   -5.1122    0.9100 C   0  0  1  0  0  0  0  0  0  0  0  0
    5.0922   -3.5866    0.7349 C   0  0  0  0  0  0  0  0  0  0  0  0
    5.3196   -2.3843    0.0426 C   0  0  0  0  0  0  0  0  0  0  0  0
    5.5140   -2.3201   -1.3103 O   0  0  0  0  0  0  0  0  0  0  0  0
    5.2133   -1.2013    0.8610 C   0  0  0  0  0  0  0  0  0  0  0  0
    4.9984   -1.2356    2.2925 C   0  0  0  0  0  0  0  0  0  0  0  0
    4.7411   -2.4612    2.9598 C   0  0  0  0  0  0  0  0  0  0  0  0
    4.7404   -3.5101    2.1046 C   0  0  0  0  0  0  0  0  0  0  0  0
    4.3330   -4.9033    2.2353 C   0  0  1  0  0  0  0  0  0  0  0  0
    2.7905   -4.7202    2.0274 C   0  0  0  0  0  0  0  0  0  0  0  0
    2.0604   -4.0684    3.2010 C   0  0  0  0  0  0  0  0  0  0  0  0
    2.5648   -4.6143    4.5431 C   0  0  1  0  0  0  0  0  0  0  0  0
    1.7607   -5.9495    4.9406 C   0  0  0  0  0  0  0  0  0  0  0  0
    1.5245   -7.2247    4.0103 C   0  0  0  0  0  0  0  0  0  0  0  0
    2.6343   -8.2754    3.7041 N   0  0  1  0  0  0  0  0  0  0  0  0
    2.0935   -9.4484    2.9192 C   0  0  0  0  0  0  0  0  0  0  0  0
    1.6439  -10.5634    3.8307 C   0  0  0  0  0  0  0  0  0  0  0  0
    0.6499  -11.5644    3.2972 C   0  0  0  0  0  0  0  0  0  0  0  0
    0.2684  -10.6300    4.4140 C   0  0  0  0  0  0  0  0  0  0  0  0
    3.8648   -7.6032    3.1527 C   0  0  1  0  0  0  0  0  0  0  0  0
    4.4244   -6.8122    4.2415 C   0  0  0  0  0  0  0  0  0  0  0  0
    4.8309   -5.4527    3.6452 C   0  0  1  0  0  0  0  0  0  0  0  0
    6.3124   -5.8720    3.4372 C   0  0  0  0  0  0  0  0  0  0  0  0
    6.3963   -7.2560    2.5891 C   0  0  1  0  0  0  0  0  0  0  0  0
    7.1456   -8.1475    3.4314 O   0  0  0  0  0  0  0  0  0  0  0  0
    8.5577   -7.9915    3.4181 C   0  0  0  0  0  0  0  0  0  0  0  0
    4.1707   -4.4375    4.6616 C   0  0  1  0  0  0  0  0  0  0  0  0
    4.5917   -2.9201    4.4391 C   0  0  0  0  0  0  0  0  0  0  0  0
    5.7620  -11.9766    4.1950 H   0  0  0  0  0  0  0  0  0  0  0  0
    6.4579  -11.8325    2.5853 H   0  0  0  0  0  0  0  0  0  0  0  0
    4.7086  -12.0514    2.7877 H   0  0  0  0  0  0  0  0  0  0  0  0
    6.2775   -9.6727    1.4565 H   0  0  0  0  0  0  0  0  0  0  0  0
    4.5908  -10.0655    1.3589 H   0  0  0  0  0  0  0  0  0  0  0  0
    4.2418   -8.3425    0.0544 H   0  0  0  0  0  0  0  0  0  0  0  0
    4.3175   -6.1174   -0.8849 H   0  0  0  0  0  0  0  0  0  0  0  0
    6.2395   -5.2297    0.9587 H   0  0  0  0  0  0  0  0  0  0  0  0
    5.3424   -3.1529   -1.7394 H   0  0  0  0  0  0  0  0  0  0  0  0
    5.2635   -0.2362    0.3866 H   0  0  0  0  0  0  0  0  0  0  0  0
    5.0021   -0.2975    2.8610 H   0  0  0  0  0  0  0  0  0  0  0  0
    2.6151   -4.0781    1.1686 H   0  0  0  0  0  0  0  0  0  0  0  0
    2.2457   -5.5901    1.7271 H   0  0  0  0  0  0  0  0  0  0  0  0
    2.1899   -2.9794    3.1592 H   0  0  0  0  0  0  0  0  0  0  0  0
    0.9795   -4.2035    3.0910 H   0  0  0  0  0  0  0  0  0  0  0  0
    2.1924   -3.8853    5.2598 H   0  0  0  0  0  0  0  0  0  0  0  0
    2.0519   -6.2498    5.9452 H   0  0  0  0  0  0  0  0  0  0  0  0
    0.7477   -5.5787    5.1059 H   0  0  0  0  0  0  0  0  0  0  0  0
    0.7417   -7.7879    4.4904 H   0  0  0  0  0  0  0  0  0  0  0  0
    1.0755   -6.9111    3.0797 H   0  0  0  0  0  0  0  0  0  0  0  0
    1.2762   -9.1345    2.2669 H   0  0  0  0  0  0  0  0  0  0  0  0
    2.8285   -9.8932    2.2756 H   0  0  0  0  0  0  0  0  0  0  0  0
    2.4541  -11.0144    4.3921 H   0  0  0  0  0  0  0  0  0  0  0  0
    0.2287  -11.3813    2.3093 H   0  0  0  0  0  0  0  0  0  0  0  0
    0.7027  -12.6111    3.5842 H   0  0  0  0  0  0  0  0  0  0  0  0
    0.2179  -11.0348    5.4223 H   0  0  0  0  0  0  0  0  0  0  0  0
   -0.4060   -9.8062    4.1838 H   0  0  0  0  0  0  0  0  0  0  0  0
    3.2638   -7.0512    2.4959 H   0  0  0  0  0  0  0  0  0  0  0  0
    3.8884   -6.7678    5.1640 H   0  0  0  0  0  0  0  0  0  0  0  0
    5.2233   -7.3827    4.7016 H   0  0  0  0  0  0  0  0  0  0  0  0
    6.8911   -5.0933    2.9675 H   0  0  0  0  0  0  0  0  0  0  0  0
    6.7879   -5.9914    4.4133 H   0  0  0  0  0  0  0  0  0  0  0  0
    6.9990   -7.1145    1.6908 H   0  0  0  0  0  0  0  0  0  0  0  0
    9.0044   -8.7060    4.1080 H   0  0  0  0  0  0  0  0  0  0  0  0
    8.8675   -6.9893    3.7177 H   0  0  0  0  0  0  0  0  0  0  0  0
    8.9717   -8.2025    2.4362 H   0  0  0  0  0  0  0  0  0  0  0  0
    4.4545   -4.6999    5.6861 H   0  0  0  0  0  0  0  0  0  0  0  0
    5.5622   -2.7906    4.8991 H   0  0  0  0  0  0  0  0  0  0  0  0
    3.9171   -2.2481    4.9431 H   0  0  0  0  0  0  0  0  0  0  0  0
    2.9287   -8.6658    4.6039 H   0  0  0  0  0  0  0  0  0  0  0  0
  1  2  1  0
  1 35  1  0
  1 36  1  0
  1 37  1  0
  2  3  1  0
  4  3  1  6
  3 38  1  0
  3 39  1  0
  4 26  1  0
  4 30  1  0
  4  5  1  0
  5  6  2  3
  5 40  1  0
  6  7  1  0
  6 41  1  0
  7 15  1  0
  7  8  1  0
  7 42  1  1
  8 14  2  0
  8  9  1  0
  9 10  1  0
  9 11  2  0
 10 43  1  0
 11 12  1  0
 11 44  1  0
 12 13  2  0
 12 45  1  0
 13 34  1  0
 13 14  1  0
 14 15  1  0
 15 28  1  0
 15 16  1  6
 16 17  1  0
 16 46  1  0
 16 47  1  0
 17 18  1  0
 17 48  1  0
 17 49  1  0
 18 33  1  0
 18 19  1  0
 18 50  1  1
 19 20  1  0
 19 51  1  0
 19 52  1  0
 20 21  1  0
 20 53  1  0
 20 54  1  0
 21 22  1  0
 21 26  1  0
 21 74  1  1
 22 23  1  0
 22 55  1  0
 22 56  1  0
 23 25  1  0
 23 24  1  0
 23 57  1  0
 24 25  1  0
 24 58  1  0
 24 59  1  0
 25 60  1  0
 25 61  1  0
 26 27  1  0
 26 62  1  6
 27 28  1  0
 27 63  1  0
 27 64  1  0
 28 29  1  6
 28 33  1  0
 29 30  1  0
 29 65  1  0
 29 66  1  0
 30 31  1  0
 30 67  1  6
 31 32  1  0
 32 68  1  0
 32 69  1  0
 32 70  1  0
 33 34  1  0
 33 71  1  1
 34 72  1  0
 34 73  1  0
M  CHG  1  21   1
M  END
>  <i_m_ct_stereo_status>  (352) 
1

>  <s_m_source_file>  (352) 
/var/tmp/pbs.5076255.sched01/tmparsu8qf0/123n9qi1oz7.sdf

>  <i_m_source_file_index>  (352) 
28

>  <i_lp_mmshare_version>  (352) 
48012

>  <i_f3d_flags>  (352) 
0

>  <s_epik_input>  (352) 
W0NAQF0xMjNbQ0BAXTQ1W0NAQEhdNltDQEBIXShbQ0gyXVtDSDJdMylbQ0gyXVtDSDJdTihbQ0gyXVtDSF03W0NIMl1bQ0gyXTcpW0NAQEhdKFtDSDJdNClbQ0BdKFtDSDJdT1tDSDNdKShbQ0BASF0oW0NIMl01KU9bQ0gzXSkvW0NIXT1bQ0hdXFtDQEhdMWM4YzJjKFtDSDJdNilbY0hdW2NIXWM4W09IXQ==

>  <s_epik_cmdline>  (352) 
J2VwaWtfcHl0aG9uJywgJy1waHQnLCAnMi4wJywgJy1waCcsICc3LjAnLCAnLXRuJywgJzgnLCAnLW1hJywgJzIwMCcsICctaW1hZScsICc8aW5maWxlLm1hZT4nLCAnLW9tYWUnLCAnPG91dGZpbGUubWFlPic=

>  <r_lp_tautomer_probability>  (352) 
1

>  <r_epik_Ionization_Penalty>  (352) 
0.0031265

>  <r_epik_Ionization_Penalty_Charging>  (352) 
0.00303042

>  <r_epik_Ionization_Penalty_Neutral>  (352) 
9.60801e-05

>  <r_epik_State_Penalty>  (352) 
0.00212919

>  <r_epik_Charging_Adjusted_Penalty>  (352) 
0.00515961

>  <i_epik_Tot_Q>  (352) 
1

>  <i_epik_Tot_abs_Q>  (352) 
1

>  <s_lp_Force_Field>  (352) 
OPLS3e

>  <r_lp_Energy>  (352) 
241.947

>  <b_lp_Chiralities_Consistent>  (352) 
1

>  <s_lp_Variant>  (352) 
108:0-4

>  <s_i_glide_gridfile>  (352) 
pfpi4k_grid

>  <i_i_glide_lignum>  (352) 
28

>  <i_i_glide_rotatable_bonds>  (352) 
6

>  <r_i_docking_score>  (352) 
-2.4846

>  <r_i_glide_ligand_efficiency>  (352) 
-0.0730765

>  <r_i_glide_ligand_efficiency_sa>  (352) 
-0.23674

>  <r_i_glide_ligand_efficiency_ln>  (352) 
-0.548918

>  <r_i_glide_gscore>  (352) 
-2.4846

>  <r_i_glide_lipo>  (352) 
-0.732723

>  <r_i_glide_hbond>  (352) 
0

>  <r_i_glide_metal>  (352) 
-0

>  <r_i_glide_rewards>  (352) 
-0.254703

>  <r_i_glide_evdw>  (352) 
-23.8574

>  <r_i_glide_ecoul>  (352) 
-3.89251

>  <r_i_glide_erotb>  (352) 
0.282363

>  <r_i_glide_esite>  (352) 
-0.00279062

>  <r_i_glide_emodel>  (352) 
-28.5516

>  <r_i_glide_energy>  (352) 
-27.7499

>  <r_i_glide_einternal>  (352) 
2.82862

>  <r_i_glide_intrahb_reward>  (352) 
-0

>  <i_i_glide_confnum>  (352) 
5

>  <i_i_glide_posenum>  (352) 
14

>  <r_i_glide_eff_state_penalty>  (352) 
0

>  <ligand_id>  (352) 
108

>  <original_smiles>  (352) 
COCC12C=CC3c4c(O)ccc5c4C34CCC3CCN(CC6CC6)C1CC4(CC2OC)C3C5

>  <smiles>  (352) 
[H]Oc1c([H])c([H])c2c3c1C1([H])C([H])=C([H])C4(C([H])([H])OC([H])([H])[H])C([H])(OC([H])([H])[H])C([H])([H])C56C([H])([H])C4([H])[N+]([H])(C([H])([H])C4([H])C([H])([H])C4([H])[H])C([H])([H])C([H])([H])C([H])(C([H])([H])C([H])([H])C315)C6([H])C2([H])[H]

$$$$
108:3:2
     RDKit          3D

 74 81  0  0  1  0  0  0  0  0999 V2000
    6.5650  -11.2080    3.1638 C   0  0  0  0  0  0  0  0  0  0  0  0
    6.1177   -9.8746    3.3801 O   0  0  0  0  0  0  0  0  0  0  0  0
    5.4444   -9.3220    2.2546 C   0  0  0  0  0  0  0  0  0  0  0  0
    4.9225   -7.8742    2.5268 C   0  0  1  0  0  0  0  0  0  0  0  0
    3.9842   -7.5380    1.3047 C   0  0  0  0  0  0  0  0  0  0  0  0
    3.5682   -6.3179    0.8382 C   0  0  0  0  0  0  0  0  0  0  0  0
    4.0655   -5.0444    1.4626 C   0  0  1  0  0  0  0  0  0  0  0  0
    3.6527   -3.5686    1.4009 C   0  0  0  0  0  0  0  0  0  0  0  0
    3.3474   -2.3556    0.7606 C   0  0  0  0  0  0  0  0  0  0  0  0
    3.0534   -2.2599   -0.5679 O   0  0  0  0  0  0  0  0  0  0  0  0
    3.2514   -1.2211    1.6361 C   0  0  0  0  0  0  0  0  0  0  0  0
    3.5201   -1.2733    3.0636 C   0  0  0  0  0  0  0  0  0  0  0  0
    3.7722   -2.5059    3.7094 C   0  0  0  0  0  0  0  0  0  0  0  0
    3.7275   -3.5569    2.8298 C   0  0  0  0  0  0  0  0  0  0  0  0
    3.6868   -5.0133    3.0073 C   0  0  1  0  0  0  0  0  0  0  0  0
    2.1366   -5.1579    3.2903 C   0  0  0  0  0  0  0  0  0  0  0  0
    1.6790   -4.6703    4.6634 C   0  0  0  0  0  0  0  0  0  0  0  0
    2.6878   -5.0623    5.7479 C   0  0  1  0  0  0  0  0  0  0  0  0
    2.3525   -6.5377    6.2988 C   0  0  0  0  0  0  0  0  0  0  0  0
    2.1212   -7.8569    5.3993 C   0  0  0  0  0  0  0  0  0  0  0  0
    3.2669   -8.6347    4.7362 N   0  0  1  0  0  0  0  0  0  0  0  0
    2.8382   -9.9004    4.0903 C   0  0  0  0  0  0  0  0  0  0  0  0
    2.0590  -10.8375    4.9919 C   0  0  0  0  0  0  0  0  0  0  0  0
    1.1678  -11.9050    4.3831 C   0  0  0  0  0  0  0  0  0  0  0  0
    0.5599  -10.7363    5.1000 C   0  0  0  0  0  0  0  0  0  0  0  0
    4.0877   -7.7300    3.8872 C   0  0  1  0  0  0  0  0  0  0  0  0
    4.7878   -6.8020    4.7804 C   0  0  0  0  0  0  0  0  0  0  0  0
    4.6756   -5.3976    4.1621 C   0  0  1  0  0  0  0  0  0  0  0  0
    6.0758   -5.4927    3.4905 C   0  0  0  0  0  0  0  0  0  0  0  0
    6.1997   -6.8387    2.5811 C   0  0  1  0  0  0  0  0  0  0  0  0
    7.3414   -7.5307    3.0993 O   0  0  0  0  0  0  0  0  0  0  0  0
    8.6135   -6.9674    2.7938 C   0  0  0  0  0  0  0  0  0  0  0  0
    4.1746   -4.5431    5.3818 C   0  0  1  0  0  0  0  0  0  0  0  0
    4.1797   -2.9804    5.1167 C   0  0  0  0  0  0  0  0  0  0  0  0
    7.1160  -11.5614    4.0355 H   0  0  0  0  0  0  0  0  0  0  0  0
    7.2291  -11.2985    2.3009 H   0  0  0  0  0  0  0  0  0  0  0  0
    5.7157  -11.8760    3.0199 H   0  0  0  0  0  0  0  0  0  0  0  0
    6.1147   -9.3143    1.3931 H   0  0  0  0  0  0  0  0  0  0  0  0
    4.6315   -9.9817    1.9539 H   0  0  0  0  0  0  0  0  0  0  0  0
    3.6381   -8.4037    0.7595 H   0  0  0  0  0  0  0  0  0  0  0  0
    2.9458   -6.2310   -0.0392 H   0  0  0  0  0  0  0  0  0  0  0  0
    5.1131   -4.9450    1.1928 H   0  0  0  0  0  0  0  0  0  0  0  0
    2.3327   -1.6404   -0.7243 H   0  0  0  0  0  0  0  0  0  0  0  0
    2.9474   -0.2701    1.2274 H   0  0  0  0  0  0  0  0  0  0  0  0
    3.4980   -0.3636    3.6460 H   0  0  0  0  0  0  0  0  0  0  0  0
    1.5633   -4.5888    2.5554 H   0  0  0  0  0  0  0  0  0  0  0  0
    1.7193   -6.1428    3.1164 H   0  0  0  0  0  0  0  0  0  0  0  0
    1.5646   -3.5819    4.6359 H   0  0  0  0  0  0  0  0  0  0  0  0
    0.6766   -5.0378    4.8839 H   0  0  0  0  0  0  0  0  0  0  0  0
    2.4092   -4.4313    6.5916 H   0  0  0  0  0  0  0  0  0  0  0  0
    3.0013   -6.7650    7.1446 H   0  0  0  0  0  0  0  0  0  0  0  0
    1.3902   -6.4073    6.7967 H   0  0  0  0  0  0  0  0  0  0  0  0
    1.6665   -8.5427    6.1100 H   0  0  0  0  0  0  0  0  0  0  0  0
    1.3246   -7.6701    4.6816 H   0  0  0  0  0  0  0  0  0  0  0  0
    2.2730   -9.7172    3.1779 H   0  0  0  0  0  0  0  0  0  0  0  0
    3.7096  -10.4840    3.8287 H   0  0  0  0  0  0  0  0  0  0  0  0
    2.6038  -11.1629    5.8793 H   0  0  0  0  0  0  0  0  0  0  0  0
    1.0562  -11.9412    3.2995 H   0  0  0  0  0  0  0  0  0  0  0  0
    1.0744  -12.8638    4.8838 H   0  0  0  0  0  0  0  0  0  0  0  0
    0.1247  -10.9245    6.0800 H   0  0  0  0  0  0  0  0  0  0  0  0
    0.0674   -9.9716    4.5041 H   0  0  0  0  0  0  0  0  0  0  0  0
    3.2195   -7.3133    3.4585 H   0  0  0  0  0  0  0  0  0  0  0  0
    4.5709   -6.8735    5.8271 H   0  0  0  0  0  0  0  0  0  0  0  0
    5.7917   -7.1915    4.9426 H   0  0  0  0  0  0  0  0  0  0  0  0
    6.3121   -4.6120    2.9000 H   0  0  0  0  0  0  0  0  0  0  0  0
    6.8328   -5.4796    4.2737 H   0  0  0  0  0  0  0  0  0  0  0  0
    6.4639   -6.5866    1.5511 H   0  0  0  0  0  0  0  0  0  0  0  0
    9.3903   -7.5735    3.2615 H   0  0  0  0  0  0  0  0  0  0  0  0
    8.7319   -5.9535    3.1697 H   0  0  0  0  0  0  0  0  0  0  0  0
    8.7920   -6.9514    1.7206 H   0  0  0  0  0  0  0  0  0  0  0  0
    4.8071   -4.7178    6.2532 H   0  0  0  0  0  0  0  0  0  0  0  0
    5.1972   -2.6256    5.2778 H   0  0  0  0  0  0  0  0  0  0  0  0
    3.5665   -2.4480    5.8417 H   0  0  0  0  0  0  0  0  0  0  0  0
    3.8816   -8.9344    5.4858 H   0  0  0  0  0  0  0  0  0  0  0  0
  1  2  1  0
  1 35  1  0
  1 36  1  0
  1 37  1  0
  2  3  1  0
  4  3  1  6
  3 38  1  0
  3 39  1  0
  4 26  1  0
  4 30  1  0
  4  5  1  0
  5  6  2  3
  5 40  1  0
  6  7  1  0
  6 41  1  0
  7 15  1  0
  7  8  1  0
  7 42  1  1
  8 14  2  0
  8  9  1  0
  9 10  1  0
  9 11  2  0
 10 43  1  0
 11 12  1  0
 11 44  1  0
 12 13  2  0
 12 45  1  0
 13 34  1  0
 13 14  1  0
 14 15  1  0
 15 28  1  0
 15 16  1  6
 16 17  1  0
 16 46  1  0
 16 47  1  0
 17 18  1  0
 17 48  1  0
 17 49  1  0
 18 33  1  0
 18 19  1  0
 18 50  1  1
 19 20  1  0
 19 51  1  0
 19 52  1  0
 20 21  1  0
 20 53  1  0
 20 54  1  0
 21 22  1  0
 21 26  1  0
 21 74  1  1
 22 23  1  0
 22 55  1  0
 22 56  1  0
 23 25  1  0
 23 24  1  0
 23 57  1  0
 24 25  1  0
 24 58  1  0
 24 59  1  0
 25 60  1  0
 25 61  1  0
 26 27  1  0
 26 62  1  6
 27 28  1  0
 27 63  1  0
 27 64  1  0
 28 29  1  6
 28 33  1  0
 29 30  1  0
 29 65  1  0
 29 66  1  0
 30 31  1  0
 30 67  1  6
 31 32  1  0
 32 68  1  0
 32 69  1  0
 32 70  1  0
 33 34  1  0
 33 71  1  1
 34 72  1  0
 34 73  1  0
M  CHG  1  21   1
M  END
>  <i_m_ct_stereo_status>  (353) 
1

>  <s_m_source_file>  (353) 
/var/tmp/pbs.5076255.sched01/tmparsu8qf0/123n9qi1oz7.sdf

>  <i_m_source_file_index>  (353) 
28

>  <i_lp_mmshare_version>  (353) 
48012

>  <i_f3d_flags>  (353) 
0

>  <s_epik_input>  (353) 
W0NAQF0xMjNbQ0BAXTQ1W0NAQEhdNltDQEBIXShbQ0gyXVtDSDJdMylbQ0gyXVtDSDJdTihbQ0gyXVtDSF03W0NIMl1bQ0gyXTcpW0NAQEhdKFtDSDJdNClbQ0BdKFtDSDJdT1tDSDNdKShbQ0BASF0oW0NIMl01KU9bQ0gzXSkvW0NIXT1bQ0hdXFtDQEhdMWM4YzJjKFtDSDJdNilbY0hdW2NIXWM4W09IXQ==

>  <s_epik_cmdline>  (353) 
J2VwaWtfcHl0aG9uJywgJy1waHQnLCAnMi4wJywgJy1waCcsICc3LjAnLCAnLXRuJywgJzgnLCAnLW1hJywgJzIwMCcsICctaW1hZScsICc8aW5maWxlLm1hZT4nLCAnLW9tYWUnLCAnPG91dGZpbGUubWFlPic=

>  <r_lp_tautomer_probability>  (353) 
1

>  <r_epik_Ionization_Penalty>  (353) 
0.0031265

>  <r_epik_Ionization_Penalty_Charging>  (353) 
0.00303042

>  <r_epik_Ionization_Penalty_Neutral>  (353) 
9.60801e-05

>  <r_epik_State_Penalty>  (353) 
0.00212919

>  <r_epik_Charging_Adjusted_Penalty>  (353) 
0.00515961

>  <i_epik_Tot_Q>  (353) 
1

>  <i_epik_Tot_abs_Q>  (353) 
1

>  <s_lp_Force_Field>  (353) 
OPLS3e

>  <r_lp_Energy>  (353) 
241.947

>  <b_lp_Chiralities_Consistent>  (353) 
1

>  <s_lp_Variant>  (353) 
108:0-4

>  <s_i_glide_gridfile>  (353) 
pfpi4k_grid

>  <i_i_glide_lignum>  (353) 
28

>  <i_i_glide_rotatable_bonds>  (353) 
6

>  <r_i_docking_score>  (353) 
-2.2344

>  <r_i_glide_ligand_efficiency>  (353) 
-0.0657175

>  <r_i_glide_ligand_efficiency_sa>  (353) 
-0.212899

>  <r_i_glide_ligand_efficiency_ln>  (353) 
-0.493641

>  <r_i_glide_gscore>  (353) 
-2.2344

>  <r_i_glide_lipo>  (353) 
-0.159647

>  <r_i_glide_hbond>  (353) 
-0.16

>  <r_i_glide_metal>  (353) 
-0

>  <r_i_glide_rewards>  (353) 
-0.254703

>  <r_i_glide_evdw>  (353) 
-20.2316

>  <r_i_glide_ecoul>  (353) 
-6.19174

>  <r_i_glide_erotb>  (353) 
0.282363

>  <r_i_glide_esite>  (353) 
-0.00206528

>  <r_i_glide_emodel>  (353) 
-28.3619

>  <r_i_glide_energy>  (353) 
-26.4234

>  <r_i_glide_einternal>  (353) 
1.58162

>  <r_i_glide_intrahb_reward>  (353) 
-0

>  <i_i_glide_confnum>  (353) 
5

>  <i_i_glide_posenum>  (353) 
1

>  <r_i_glide_eff_state_penalty>  (353) 
0

>  <ligand_id>  (353) 
108

>  <original_smiles>  (353) 
COCC12C=CC3c4c(O)ccc5c4C34CCC3CCN(CC6CC6)C1CC4(CC2OC)C3C5

>  <smiles>  (353) 
[H]Oc1c([H])c([H])c2c3c1C1([H])C([H])=C([H])C4(C([H])([H])OC([H])([H])[H])C([H])(OC([H])([H])[H])C([H])([H])C56C([H])([H])C4([H])[N+]([H])(C([H])([H])C4([H])C([H])([H])C4([H])[H])C([H])([H])C([H])([H])C([H])(C([H])([H])C([H])([H])C315)C6([H])C2([H])[H]

$$$$
108:4:0
     RDKit          3D

 74 81  0  0  1  0  0  0  0  0999 V2000
    7.7190   -2.8645   -1.5087 C   0  0  0  0  0  0  0  0  0  0  0  0
    6.9269   -3.6216   -0.6094 O   0  0  0  0  0  0  0  0  0  0  0  0
    6.3654   -2.8637    0.4540 C   0  0  0  0  0  0  0  0  0  0  0  0
    5.6338   -3.8161    1.4473 C   0  0  1  0  0  0  0  0  0  0  0  0
    6.6274   -5.0142    1.7325 C   0  0  0  0  0  0  0  0  0  0  0  0
    6.2742   -6.3320    1.6939 C   0  0  0  0  0  0  0  0  0  0  0  0
    5.9970   -7.1759    2.9576 C   0  0  2  0  0  0  0  0  0  0  0  0
    5.0080   -8.3329    2.7739 C   0  0  0  0  0  0  0  0  0  0  0  0
    4.6139   -9.4844    2.0741 C   0  0  0  0  0  0  0  0  0  0  0  0
    5.4492  -10.2082    1.2787 O   0  0  0  0  0  0  0  0  0  0  0  0
    3.2361   -9.8442    2.2101 C   0  0  0  0  0  0  0  0  0  0  0  0
    2.2743   -9.0522    2.9273 C   0  0  0  0  0  0  0  0  0  0  0  0
    2.6748   -7.8911    3.6250 C   0  0  0  0  0  0  0  0  0  0  0  0
    4.0296   -7.6660    3.5741 C   0  0  0  0  0  0  0  0  0  0  0  0
    4.8492   -6.5022    3.8959 C   0  0  1  0  0  0  0  0  0  0  0  0
    5.0739   -6.3961    5.4490 C   0  0  0  0  0  0  0  0  0  0  0  0
    3.9799   -5.6491    6.3090 C   0  0  0  0  0  0  0  0  0  0  0  0
    2.9177   -4.7497    5.5788 C   0  0  1  0  0  0  0  0  0  0  0  0
    3.1098   -3.1762    5.5800 C   0  0  0  0  0  0  0  0  0  0  0  0
    3.0370   -2.2656    4.2614 C   0  0  0  0  0  0  0  0  0  0  0  0
    3.7995   -2.4132    2.9184 N   0  0  1  0  0  0  0  0  0  0  0  0
    3.7634   -1.1118    2.1891 C   0  0  0  0  0  0  0  0  0  0  0  0
    2.3463   -0.6429    1.8951 C   0  0  0  0  0  0  0  0  0  0  0  0
    2.0742    0.8192    1.6102 C   0  0  0  0  0  0  0  0  0  0  0  0
    1.5835    0.2092    2.8912 C   0  0  0  0  0  0  0  0  0  0  0  0
    5.1692   -3.0741    2.8236 C   0  0  1  0  0  0  0  0  0  0  0  0
    5.1237   -4.1643    3.8148 C   0  0  0  0  0  0  0  0  0  0  0  0
    4.0595   -5.2760    3.4248 C   0  0  1  0  0  0  0  0  0  0  0  0
    3.5635   -5.2302    1.8908 C   0  0  0  0  0  0  0  0  0  0  0  0
    4.3621   -4.4185    0.8268 C   0  0  1  0  0  0  0  0  0  0  0  0
    3.5272   -3.3909    0.2927 O   0  0  0  0  0  0  0  0  0  0  0  0
    2.8333   -3.7528   -0.8948 C   0  0  0  0  0  0  0  0  0  0  0  0
    2.6818   -5.3046    4.1975 C   0  0  1  0  0  0  0  0  0  0  0  0
    1.9246   -6.6997    4.2194 C   0  0  0  0  0  0  0  0  0  0  0  0
    8.1002   -3.5119   -2.2959 H   0  0  0  0  0  0  0  0  0  0  0  0
    8.5780   -2.4150   -1.0092 H   0  0  0  0  0  0  0  0  0  0  0  0
    7.1310   -2.0810   -1.9832 H   0  0  0  0  0  0  0  0  0  0  0  0
    7.1625   -2.3283    0.9739 H   0  0  0  0  0  0  0  0  0  0  0  0
    5.7063   -2.1167    0.0122 H   0  0  0  0  0  0  0  0  0  0  0  0
    7.3755   -4.7416    2.4588 H   0  0  0  0  0  0  0  0  0  0  0  0
    5.5570   -6.6335    0.9531 H   0  0  0  0  0  0  0  0  0  0  0  0
    6.8879   -7.4708    3.5103 H   0  0  0  0  0  0  0  0  0  0  0  0
    4.9925  -10.9650    0.8900 H   0  0  0  0  0  0  0  0  0  0  0  0
    2.8788  -10.7130    1.6894 H   0  0  0  0  0  0  0  0  0  0  0  0
    1.2309   -9.3278    2.8887 H   0  0  0  0  0  0  0  0  0  0  0  0
    5.2504   -7.3823    5.8761 H   0  0  0  0  0  0  0  0  0  0  0  0
    6.0171   -5.8850    5.6480 H   0  0  0  0  0  0  0  0  0  0  0  0
    3.4308   -6.4280    6.8407 H   0  0  0  0  0  0  0  0  0  0  0  0
    4.4594   -5.0792    7.1054 H   0  0  0  0  0  0  0  0  0  0  0  0
    1.9960   -4.8987    6.1417 H   0  0  0  0  0  0  0  0  0  0  0  0
    2.2970   -2.8001    6.2014 H   0  0  0  0  0  0  0  0  0  0  0  0
    3.9708   -2.8942    6.1915 H   0  0  0  0  0  0  0  0  0  0  0  0
    1.9810   -2.2413    3.9923 H   0  0  0  0  0  0  0  0  0  0  0  0
    3.2676   -1.2727    4.6432 H   0  0  0  0  0  0  0  0  0  0  0  0
    4.2953   -0.3432    2.7460 H   0  0  0  0  0  0  0  0  0  0  0  0
    4.2597   -1.1911    1.2311 H   0  0  0  0  0  0  0  0  0  0  0  0
    1.7601   -1.3444    1.2974 H   0  0  0  0  0  0  0  0  0  0  0  0
    2.9051    1.5203    1.6794 H   0  0  0  0  0  0  0  0  0  0  0  0
    1.3091    1.0625    0.8812 H   0  0  0  0  0  0  0  0  0  0  0  0
    0.5174    0.0098    2.9877 H   0  0  0  0  0  0  0  0  0  0  0  0
    2.0929    0.4922    3.8111 H   0  0  0  0  0  0  0  0  0  0  0  0
    5.9181   -2.3553    3.1438 H   0  0  0  0  0  0  0  0  0  0  0  0
    6.1202   -4.5551    3.9790 H   0  0  0  0  0  0  0  0  0  0  0  0
    5.1544   -3.7815    4.8124 H   0  0  0  0  0  0  0  0  0  0  0  0
    3.4067   -6.2327    1.5016 H   0  0  0  0  0  0  0  0  0  0  0  0
    2.5616   -4.8065    1.8311 H   0  0  0  0  0  0  0  0  0  0  0  0
    4.6668   -5.0511   -0.0117 H   0  0  0  0  0  0  0  0  0  0  0  0
    2.2217   -2.9169   -1.2328 H   0  0  0  0  0  0  0  0  0  0  0  0
    2.1767   -4.6078   -0.7308 H   0  0  0  0  0  0  0  0  0  0  0  0
    3.5287   -3.9847   -1.7022 H   0  0  0  0  0  0  0  0  0  0  0  0
    1.9647   -4.6040    3.7718 H   0  0  0  0  0  0  0  0  0  0  0  0
    1.0038   -6.5963    3.6448 H   0  0  0  0  0  0  0  0  0  0  0  0
    1.6035   -6.9724    5.2245 H   0  0  0  0  0  0  0  0  0  0  0  0
    3.2239   -3.0373    2.3680 H   0  0  0  0  0  0  0  0  0  0  0  0
  1  2  1  0
  1 35  1  0
  1 36  1  0
  1 37  1  0
  2  3  1  0
  4  3  1  6
  3 38  1  0
  3 39  1  0
  4 26  1  0
  4 30  1  0
  4  5  1  0
  5  6  2  3
  5 40  1  0
  6  7  1  0
  6 41  1  0
  7 15  1  0
  7  8  1  0
  7 42  1  1
  8 14  2  0
  8  9  1  0
  9 10  1  0
  9 11  2  0
 10 43  1  0
 11 12  1  0
 11 44  1  0
 12 13  2  0
 12 45  1  0
 13 34  1  0
 13 14  1  0
 14 15  1  0
 15 28  1  0
 15 16  1  1
 16 17  1  0
 16 46  1  0
 16 47  1  0
 17 18  1  0
 17 48  1  0
 17 49  1  0
 18 33  1  0
 18 19  1  0
 18 50  1  1
 19 20  1  0
 19 51  1  0
 19 52  1  0
 20 21  1  0
 20 53  1  0
 20 54  1  0
 21 22  1  0
 21 26  1  0
 21 74  1  6
 22 23  1  0
 22 55  1  0
 22 56  1  0
 23 25  1  0
 23 24  1  0
 23 57  1  0
 24 25  1  0
 24 58  1  0
 24 59  1  0
 25 60  1  0
 25 61  1  0
 26 27  1  0
 26 62  1  1
 27 28  1  0
 27 63  1  0
 27 64  1  0
 28 29  1  6
 28 33  1  0
 29 30  1  0
 29 65  1  0
 29 66  1  0
 30 31  1  0
 30 67  1  6
 31 32  1  0
 32 68  1  0
 32 69  1  0
 32 70  1  0
 33 34  1  0
 33 71  1  6
 34 72  1  0
 34 73  1  0
M  CHG  1  21   1
M  END
>  <i_m_ct_stereo_status>  (354) 
1

>  <s_m_source_file>  (354) 
/var/tmp/pbs.5076255.sched01/tmparsu8qf0/123n9qi1oz7.sdf

>  <i_m_source_file_index>  (354) 
29

>  <i_lp_mmshare_version>  (354) 
48012

>  <i_f3d_flags>  (354) 
0

>  <s_epik_input>  (354) 
W0NAQF0xMjNbQ0BAXTQ1W0NAQEhdNltDQEBIXShbQ0gyXVtDSDJdMylbQ0gyXVtDSDJdTihbQ0gyXVtDSF03W0NIMl1bQ0gyXTcpW0NAQEhdKFtDSDJdNClbQ0BdKFtDSDJdT1tDSDNdKShbQ0BASF0oW0NIMl01KU9bQ0gzXSkvW0NIXT1bQ0hdXFtDQEhdMWM4YzJjKFtDSDJdNilbY0hdW2NIXWM4W09IXQ==

>  <s_epik_cmdline>  (354) 
J2VwaWtfcHl0aG9uJywgJy1waHQnLCAnMi4wJywgJy1waCcsICc3LjAnLCAnLXRuJywgJzgnLCAnLW1hJywgJzIwMCcsICctaW1hZScsICc8aW5maWxlLm1hZT4nLCAnLW9tYWUnLCAnPG91dGZpbGUubWFlPic=

>  <r_lp_tautomer_probability>  (354) 
1

>  <r_epik_Ionization_Penalty>  (354) 
0.0031265

>  <r_epik_Ionization_Penalty_Charging>  (354) 
0.00303042

>  <r_epik_Ionization_Penalty_Neutral>  (354) 
9.60801e-05

>  <r_epik_State_Penalty>  (354) 
0.00212919

>  <r_epik_Charging_Adjusted_Penalty>  (354) 
0.00515961

>  <i_epik_Tot_Q>  (354) 
1

>  <i_epik_Tot_abs_Q>  (354) 
1

>  <s_lp_Force_Field>  (354) 
OPLS3e

>  <r_lp_Energy>  (354) 
215.128

>  <b_lp_Chiralities_Consistent>  (354) 
1

>  <s_lp_Variant>  (354) 
108:0-5

>  <s_i_glide_gridfile>  (354) 
pfpi4k_grid

>  <i_i_glide_lignum>  (354) 
29

>  <i_i_glide_rotatable_bonds>  (354) 
6

>  <r_i_docking_score>  (354) 
-2.80595

>  <r_i_glide_ligand_efficiency>  (354) 
-0.0825279

>  <r_i_glide_ligand_efficiency_sa>  (354) 
-0.267358

>  <r_i_glide_ligand_efficiency_ln>  (354) 
-0.619912

>  <r_i_glide_gscore>  (354) 
-2.80595

>  <r_i_glide_lipo>  (354) 
-0.395647

>  <r_i_glide_hbond>  (354) 
-0.16

>  <r_i_glide_metal>  (354) 
-0

>  <r_i_glide_rewards>  (354) 
-0.254703

>  <r_i_glide_evdw>  (354) 
-19.7138

>  <r_i_glide_ecoul>  (354) 
-8.61512

>  <r_i_glide_erotb>  (354) 
0.282363

>  <r_i_glide_esite>  (354) 
0

>  <r_i_glide_emodel>  (354) 
-32.623

>  <r_i_glide_energy>  (354) 
-28.329

>  <r_i_glide_einternal>  (354) 
2.02086

>  <r_i_glide_intrahb_reward>  (354) 
-0

>  <i_i_glide_confnum>  (354) 
2

>  <i_i_glide_posenum>  (354) 
17

>  <r_i_glide_eff_state_penalty>  (354) 
0

>  <ligand_id>  (354) 
108

>  <original_smiles>  (354) 
COCC12C=CC3c4c(O)ccc5c4C34CCC3CCN(CC6CC6)C1CC4(CC2OC)C3C5

>  <smiles>  (354) 
[H]Oc1c([H])c([H])c2c3c1C1([H])C([H])=C([H])C4(C([H])([H])OC([H])([H])[H])C([H])(OC([H])([H])[H])C([H])([H])C56C([H])([H])C4([H])[N+]([H])(C([H])([H])C4([H])C([H])([H])C4([H])[H])C([H])([H])C([H])([H])C([H])(C([H])([H])C([H])([H])C315)C6([H])C2([H])[H]

$$$$
108:4:1
     RDKit          3D

 74 81  0  0  1  0  0  0  0  0999 V2000
    5.2094   -4.1970   -2.4633 C   0  0  0  0  0  0  0  0  0  0  0  0
    4.6438   -3.0183   -1.9119 O   0  0  0  0  0  0  0  0  0  0  0  0
    5.1290   -2.5936   -0.6394 C   0  0  0  0  0  0  0  0  0  0  0  0
    4.7707   -3.5270    0.5656 C   0  0  1  0  0  0  0  0  0  0  0  0
    5.9551   -4.5741    0.6671 C   0  0  0  0  0  0  0  0  0  0  0  0
    5.7678   -5.9125    0.8042 C   0  0  0  0  0  0  0  0  0  0  0  0
    5.9521   -6.6690    2.1295 C   0  0  2  0  0  0  0  0  0  0  0  0
    5.0998   -7.9327    2.3057 C   0  0  0  0  0  0  0  0  0  0  0  0
    4.6957   -9.1675    1.7996 C   0  0  0  0  0  0  0  0  0  0  0  0
    5.4197   -9.8501    0.8903 O   0  0  0  0  0  0  0  0  0  0  0  0
    3.4510   -9.6756    2.3119 C   0  0  0  0  0  0  0  0  0  0  0  0
    2.6081   -8.9314    3.2043 C   0  0  0  0  0  0  0  0  0  0  0  0
    3.0241   -7.6681    3.7086 C   0  0  0  0  0  0  0  0  0  0  0  0
    4.2772   -7.2979    3.2909 C   0  0  0  0  0  0  0  0  0  0  0  0
    5.0053   -6.0320    3.2873 C   0  0  1  0  0  0  0  0  0  0  0  0
    5.6039   -5.7677    4.7111 C   0  0  0  0  0  0  0  0  0  0  0  0
    4.6858   -5.0720    5.7888 C   0  0  0  0  0  0  0  0  0  0  0  0
    3.3703   -4.3591    5.3178 C   0  0  1  0  0  0  0  0  0  0  0  0
    3.3571   -2.7871    5.1684 C   0  0  0  0  0  0  0  0  0  0  0  0
    2.8343   -2.0260    3.8697 C   0  0  0  0  0  0  0  0  0  0  0  0
    3.2274   -2.1918    2.3784 N   0  0  1  0  0  0  0  0  0  0  0  0
    2.8354   -0.9770    1.6133 C   0  0  0  0  0  0  0  0  0  0  0  0
    1.4171   -0.4991    1.9066 C   0  0  0  0  0  0  0  0  0  0  0  0
    0.9997    0.9307    1.6259 C   0  0  0  0  0  0  0  0  0  0  0  0
    1.1107    0.4668    3.0386 C   0  0  0  0  0  0  0  0  0  0  0  0
    4.5943   -2.7107    1.9630 C   0  0  1  0  0  0  0  0  0  0  0  0
    4.9516   -3.6965    2.9966 C   0  0  0  0  0  0  0  0  0  0  0  0
    3.9682   -4.9434    2.9814 C   0  0  1  0  0  0  0  0  0  0  0  0
    3.0702   -5.0874    1.6587 C   0  0  0  0  0  0  0  0  0  0  0  0
    3.4480   -4.3142    0.3745 C   0  0  1  0  0  0  0  0  0  0  0  0
    2.3649   -3.4601   -0.0029 O   0  0  0  0  0  0  0  0  0  0  0  0
    1.7295   -3.7795   -1.2466 C   0  0  0  0  0  0  0  0  0  0  0  0
    2.8572   -5.0528    4.0912 C   0  0  1  0  0  0  0  0  0  0  0  0
    2.3111   -6.5083    4.4024 C   0  0  0  0  0  0  0  0  0  0  0  0
    4.6379   -4.5122   -3.3349 H   0  0  0  0  0  0  0  0  0  0  0  0
    5.1951   -5.0532   -1.8013 H   0  0  0  0  0  0  0  0  0  0  0  0
    6.2411   -4.0097   -2.7414 H   0  0  0  0  0  0  0  0  0  0  0  0
    6.2105   -2.4538   -0.7138 H   0  0  0  0  0  0  0  0  0  0  0  0
    4.7300   -1.5903   -0.4868 H   0  0  0  0  0  0  0  0  0  0  0  0
    6.8228   -4.1457    1.1517 H   0  0  0  0  0  0  0  0  0  0  0  0
    4.9341   -6.3604    0.2980 H   0  0  0  0  0  0  0  0  0  0  0  0
    6.9848   -6.8220    2.4426 H   0  0  0  0  0  0  0  0  0  0  0  0
    5.0040  -10.7117    0.6770 H   0  0  0  0  0  0  0  0  0  0  0  0
    3.0891  -10.6303    1.9566 H   0  0  0  0  0  0  0  0  0  0  0  0
    1.6305   -9.3201    3.4637 H   0  0  0  0  0  0  0  0  0  0  0  0
    6.0128   -6.6874    5.1313 H   0  0  0  0  0  0  0  0  0  0  0  0
    6.4898   -5.1403    4.6246 H   0  0  0  0  0  0  0  0  0  0  0  0
    4.3963   -5.8518    6.4985 H   0  0  0  0  0  0  0  0  0  0  0  0
    5.2839   -4.3754    6.3781 H   0  0  0  0  0  0  0  0  0  0  0  0
    2.6539   -4.5461    6.1136 H   0  0  0  0  0  0  0  0  0  0  0  0
    2.6883   -2.4423    5.9603 H   0  0  0  0  0  0  0  0  0  0  0  0
    4.3022   -2.3576    5.5147 H   0  0  0  0  0  0  0  0  0  0  0  0
    1.7521   -2.1206    3.9113 H   0  0  0  0  0  0  0  0  0  0  0  0
    3.0843   -1.0101    4.1388 H   0  0  0  0  0  0  0  0  0  0  0  0
    3.5154   -0.1566    1.8103 H   0  0  0  0  0  0  0  0  0  0  0  0
    2.8741   -1.1582    0.5454 H   0  0  0  0  0  0  0  0  0  0  0  0
    0.6485   -1.2430    1.6896 H   0  0  0  0  0  0  0  0  0  0  0  0
    1.7630    1.6278    1.2820 H   0  0  0  0  0  0  0  0  0  0  0  0
   -0.0092    1.1272    1.2607 H   0  0  0  0  0  0  0  0  0  0  0  0
    0.2005    0.2660    3.6053 H   0  0  0  0  0  0  0  0  0  0  0  0
    1.9370    0.8783    3.6174 H   0  0  0  0  0  0  0  0  0  0  0  0
    5.3193   -1.9077    2.0246 H   0  0  0  0  0  0  0  0  0  0  0  0
    6.0036   -3.9598    2.9294 H   0  0  0  0  0  0  0  0  0  0  0  0
    5.1840   -3.2162    3.9184 H   0  0  0  0  0  0  0  0  0  0  0  0
    2.9833   -6.1323    1.3746 H   0  0  0  0  0  0  0  0  0  0  0  0
    2.0303   -4.8035    1.8375 H   0  0  0  0  0  0  0  0  0  0  0  0
    3.5340   -5.0670   -0.4042 H   0  0  0  0  0  0  0  0  0  0  0  0
    0.9305   -3.0700   -1.4531 H   0  0  0  0  0  0  0  0  0  0  0  0
    1.2996   -4.7788   -1.2158 H   0  0  0  0  0  0  0  0  0  0  0  0
    2.3728   -3.7290   -2.1203 H   0  0  0  0  0  0  0  0  0  0  0  0
    1.9696   -4.4780    3.8339 H   0  0  0  0  0  0  0  0  0  0  0  0
    1.2772   -6.5595    4.0831 H   0  0  0  0  0  0  0  0  0  0  0  0
    2.3038   -6.7209    5.4659 H   0  0  0  0  0  0  0  0  0  0  0  0
    2.6088   -2.9101    2.0384 H   0  0  0  0  0  0  0  0  0  0  0  0
  1  2  1  0
  1 35  1  0
  1 36  1  0
  1 37  1  0
  2  3  1  0
  4  3  1  6
  3 38  1  0
  3 39  1  0
  4 26  1  0
  4 30  1  0
  4  5  1  0
  5  6  2  3
  5 40  1  0
  6  7  1  0
  6 41  1  0
  7 15  1  0
  7  8  1  0
  7 42  1  1
  8 14  2  0
  8  9  1  0
  9 10  1  0
  9 11  2  0
 10 43  1  0
 11 12  1  0
 11 44  1  0
 12 13  2  0
 12 45  1  0
 13 34  1  0
 13 14  1  0
 14 15  1  0
 15 28  1  0
 15 16  1  1
 16 17  1  0
 16 46  1  0
 16 47  1  0
 17 18  1  0
 17 48  1  0
 17 49  1  0
 18 33  1  0
 18 19  1  0
 18 50  1  1
 19 20  1  0
 19 51  1  0
 19 52  1  0
 20 21  1  0
 20 53  1  0
 20 54  1  0
 21 22  1  0
 21 26  1  0
 21 74  1  6
 22 23  1  0
 22 55  1  0
 22 56  1  0
 23 25  1  0
 23 24  1  0
 23 57  1  0
 24 25  1  0
 24 58  1  0
 24 59  1  0
 25 60  1  0
 25 61  1  0
 26 27  1  0
 26 62  1  6
 27 28  1  0
 27 63  1  0
 27 64  1  0
 28 29  1  6
 28 33  1  0
 29 30  1  0
 29 65  1  0
 29 66  1  0
 30 31  1  0
 30 67  1  6
 31 32  1  0
 32 68  1  0
 32 69  1  0
 32 70  1  0
 33 34  1  0
 33 71  1  6
 34 72  1  0
 34 73  1  0
M  CHG  1  21   1
M  END
>  <i_m_ct_stereo_status>  (355) 
1

>  <s_m_source_file>  (355) 
/var/tmp/pbs.5076255.sched01/tmparsu8qf0/123n9qi1oz7.sdf

>  <i_m_source_file_index>  (355) 
29

>  <i_lp_mmshare_version>  (355) 
48012

>  <i_f3d_flags>  (355) 
0

>  <s_epik_input>  (355) 
W0NAQF0xMjNbQ0BAXTQ1W0NAQEhdNltDQEBIXShbQ0gyXVtDSDJdMylbQ0gyXVtDSDJdTihbQ0gyXVtDSF03W0NIMl1bQ0gyXTcpW0NAQEhdKFtDSDJdNClbQ0BdKFtDSDJdT1tDSDNdKShbQ0BASF0oW0NIMl01KU9bQ0gzXSkvW0NIXT1bQ0hdXFtDQEhdMWM4YzJjKFtDSDJdNilbY0hdW2NIXWM4W09IXQ==

>  <s_epik_cmdline>  (355) 
J2VwaWtfcHl0aG9uJywgJy1waHQnLCAnMi4wJywgJy1waCcsICc3LjAnLCAnLXRuJywgJzgnLCAnLW1hJywgJzIwMCcsICctaW1hZScsICc8aW5maWxlLm1hZT4nLCAnLW9tYWUnLCAnPG91dGZpbGUubWFlPic=

>  <r_lp_tautomer_probability>  (355) 
1

>  <r_epik_Ionization_Penalty>  (355) 
0.0031265

>  <r_epik_Ionization_Penalty_Charging>  (355) 
0.00303042

>  <r_epik_Ionization_Penalty_Neutral>  (355) 
9.60801e-05

>  <r_epik_State_Penalty>  (355) 
0.00212919

>  <r_epik_Charging_Adjusted_Penalty>  (355) 
0.00515961

>  <i_epik_Tot_Q>  (355) 
1

>  <i_epik_Tot_abs_Q>  (355) 
1

>  <s_lp_Force_Field>  (355) 
OPLS3e

>  <r_lp_Energy>  (355) 
215.128

>  <b_lp_Chiralities_Consistent>  (355) 
1

>  <s_lp_Variant>  (355) 
108:0-5

>  <s_i_glide_gridfile>  (355) 
pfpi4k_grid

>  <i_i_glide_lignum>  (355) 
29

>  <i_i_glide_rotatable_bonds>  (355) 
6

>  <r_i_docking_score>  (355) 
-2.73724

>  <r_i_glide_ligand_efficiency>  (355) 
-0.080507

>  <r_i_glide_ligand_efficiency_sa>  (355) 
-0.260811

>  <r_i_glide_ligand_efficiency_ln>  (355) 
-0.604732

>  <r_i_glide_gscore>  (355) 
-2.73724

>  <r_i_glide_lipo>  (355) 
-0.311097

>  <r_i_glide_hbond>  (355) 
-0.161642

>  <r_i_glide_metal>  (355) 
-0

>  <r_i_glide_rewards>  (355) 
-0.254703

>  <r_i_glide_evdw>  (355) 
-22.3136

>  <r_i_glide_ecoul>  (355) 
-7.83933

>  <r_i_glide_erotb>  (355) 
0.282363

>  <r_i_glide_esite>  (355) 
-0.000576608

>  <r_i_glide_emodel>  (355) 
-30.9583

>  <r_i_glide_energy>  (355) 
-30.153

>  <r_i_glide_einternal>  (355) 
6.76065

>  <r_i_glide_intrahb_reward>  (355) 
-0

>  <i_i_glide_confnum>  (355) 
2

>  <i_i_glide_posenum>  (355) 
8

>  <r_i_glide_eff_state_penalty>  (355) 
0

>  <ligand_id>  (355) 
108

>  <original_smiles>  (355) 
COCC12C=CC3c4c(O)ccc5c4C34CCC3CCN(CC6CC6)C1CC4(CC2OC)C3C5

>  <smiles>  (355) 
[H]Oc1c([H])c([H])c2c3c1C1([H])C([H])=C([H])C4(C([H])([H])OC([H])([H])[H])C([H])(OC([H])([H])[H])C([H])([H])C56C([H])([H])C4([H])[N+]([H])(C([H])([H])C4([H])C([H])([H])C4([H])[H])C([H])([H])C([H])([H])C([H])(C([H])([H])C([H])([H])C315)C6([H])C2([H])[H]

$$$$
108:4:2
     RDKit          3D

 74 81  0  0  1  0  0  0  0  0999 V2000
    8.1064   -5.9332    0.6487 C   0  0  0  0  0  0  0  0  0  0  0  0
    7.0469   -5.9864    1.5941 O   0  0  0  0  0  0  0  0  0  0  0  0
    5.7821   -5.6550    1.0396 C   0  0  0  0  0  0  0  0  0  0  0  0
    4.6638   -5.8063    2.1085 C   0  0  1  0  0  0  0  0  0  0  0  0
    4.6237   -7.3459    2.4722 C   0  0  0  0  0  0  0  0  0  0  0  0
    3.4825   -8.0935    2.5404 C   0  0  0  0  0  0  0  0  0  0  0  0
    2.7879   -8.4681    3.8684 C   0  0  2  0  0  0  0  0  0  0  0  0
    1.2701   -8.6781    3.7863 C   0  0  0  0  0  0  0  0  0  0  0  0
    0.1726   -9.3197    3.1946 C   0  0  0  0  0  0  0  0  0  0  0  0
    0.3084  -10.4678    2.4836 O   0  0  0  0  0  0  0  0  0  0  0  0
   -1.0922   -8.6650    3.3523 C   0  0  0  0  0  0  0  0  0  0  0  0
   -1.2458   -7.3976    4.0161 C   0  0  0  0  0  0  0  0  0  0  0  0
   -0.1337   -6.7613    4.6172 C   0  0  0  0  0  0  0  0  0  0  0  0
    1.0249   -7.4914    4.5383 C   0  0  0  0  0  0  0  0  0  0  0  0
    2.4322   -7.1549    4.7598 C   0  0  1  0  0  0  0  0  0  0  0  0
    2.7604   -7.1438    6.2967 C   0  0  0  0  0  0  0  0  0  0  0  0
    2.4872   -5.8155    7.1040 C   0  0  0  0  0  0  0  0  0  0  0  0
    2.2479   -4.4779    6.3144 C   0  0  1  0  0  0  0  0  0  0  0  0
    3.4292   -3.4242    6.1871 C   0  0  0  0  0  0  0  0  0  0  0  0
    3.9022   -2.7594    4.8002 C   0  0  0  0  0  0  0  0  0  0  0  0
    4.2989   -3.4603    3.4747 N   0  0  1  0  0  0  0  0  0  0  0  0
    5.0785   -2.5102    2.6377 C   0  0  0  0  0  0  0  0  0  0  0  0
    4.2493   -1.3344    2.1448 C   0  0  0  0  0  0  0  0  0  0  0  0
    4.9080   -0.2547    1.3128 C   0  0  0  0  0  0  0  0  0  0  0  0
    4.4637    0.0496    2.7160 C   0  0  0  0  0  0  0  0  0  0  0  0
    4.8838   -4.8676    3.4255 C   0  0  1  0  0  0  0  0  0  0  0  0
    4.1811   -5.6002    4.4961 C   0  0  0  0  0  0  0  0  0  0  0  0
    2.6290   -5.7429    4.2001 C   0  0  1  0  0  0  0  0  0  0  0  0
    2.2062   -5.4569    2.6705 C   0  0  0  0  0  0  0  0  0  0  0  0
    3.2789   -5.4474    1.5386 C   0  0  1  0  0  0  0  0  0  0  0  0
    3.2669   -4.1571    0.9242 O   0  0  0  0  0  0  0  0  0  0  0  0
    3.1858   -4.1660   -0.4986 C   0  0  0  0  0  0  0  0  0  0  0  0
    1.6253   -4.8116    4.9832 C   0  0  1  0  0  0  0  0  0  0  0  0
    0.1359   -5.3477    5.1275 C   0  0  0  0  0  0  0  0  0  0  0  0
    9.0419   -6.2070    1.1333 H   0  0  0  0  0  0  0  0  0  0  0  0
    8.2216   -4.9300    0.2347 H   0  0  0  0  0  0  0  0  0  0  0  0
    7.9613   -6.6351   -0.1714 H   0  0  0  0  0  0  0  0  0  0  0  0
    5.8325   -4.6592    0.6047 H   0  0  0  0  0  0  0  0  0  0  0  0
    5.5661   -6.3237    0.2059 H   0  0  0  0  0  0  0  0  0  0  0  0
    5.4122   -7.5920    3.1679 H   0  0  0  0  0  0  0  0  0  0  0  0
    2.7028   -7.8863    1.8294 H   0  0  0  0  0  0  0  0  0  0  0  0
    3.2895   -9.2535    4.4341 H   0  0  0  0  0  0  0  0  0  0  0  0
    1.2023  -10.7712    2.4314 H   0  0  0  0  0  0  0  0  0  0  0  0
   -1.9654   -9.1273    2.9169 H   0  0  0  0  0  0  0  0  0  0  0  0
   -2.2133   -6.9168    4.0177 H   0  0  0  0  0  0  0  0  0  0  0  0
    2.2671   -7.9770    6.7973 H   0  0  0  0  0  0  0  0  0  0  0  0
    3.8150   -7.3807    6.4466 H   0  0  0  0  0  0  0  0  0  0  0  0
    1.5939   -6.0049    7.7007 H   0  0  0  0  0  0  0  0  0  0  0  0
    3.2686   -5.6686    7.8495 H   0  0  0  0  0  0  0  0  0  0  0  0
    1.4927   -3.9493    6.8946 H   0  0  0  0  0  0  0  0  0  0  0  0
    3.1056   -2.5741    6.7913 H   0  0  0  0  0  0  0  0  0  0  0  0
    4.2948   -3.7556    6.7664 H   0  0  0  0  0  0  0  0  0  0  0  0
    3.1210   -2.0475    4.5269 H   0  0  0  0  0  0  0  0  0  0  0  0
    4.7434   -2.1303    5.0943 H   0  0  0  0  0  0  0  0  0  0  0  0
    5.9482   -2.1391    3.1775 H   0  0  0  0  0  0  0  0  0  0  0  0
    5.4681   -2.9984    1.7557 H   0  0  0  0  0  0  0  0  0  0  0  0
    3.2360   -1.5937    1.8274 H   0  0  0  0  0  0  0  0  0  0  0  0
    5.9788   -0.3287    1.1251 H   0  0  0  0  0  0  0  0  0  0  0  0
    4.3270    0.1932    0.5067 H   0  0  0  0  0  0  0  0  0  0  0  0
    3.5848    0.6811    2.8373 H   0  0  0  0  0  0  0  0  0  0  0  0
    5.2334    0.1677    3.4787 H   0  0  0  0  0  0  0  0  0  0  0  0
    5.9398   -4.8225    3.6911 H   0  0  0  0  0  0  0  0  0  0  0  0
    4.6827   -6.5433    4.6792 H   0  0  0  0  0  0  0  0  0  0  0  0
    4.5108   -5.2815    5.4616 H   0  0  0  0  0  0  0  0  0  0  0  0
    1.4054   -6.1230    2.3635 H   0  0  0  0  0  0  0  0  0  0  0  0
    1.7307   -4.4783    2.5825 H   0  0  0  0  0  0  0  0  0  0  0  0
    3.0122   -6.1758    0.7689 H   0  0  0  0  0  0  0  0  0  0  0  0
    3.1829   -3.1453   -0.8789 H   0  0  0  0  0  0  0  0  0  0  0  0
    2.2665   -4.6462   -0.8330 H   0  0  0  0  0  0  0  0  0  0  0  0
    4.0320   -4.6767   -0.9576 H   0  0  0  0  0  0  0  0  0  0  0  0
    1.5224   -3.8349    4.5095 H   0  0  0  0  0  0  0  0  0  0  0  0
   -0.5080   -4.6902    4.5524 H   0  0  0  0  0  0  0  0  0  0  0  0
   -0.2277   -5.2864    6.1521 H   0  0  0  0  0  0  0  0  0  0  0  0
    3.4236   -3.5811    2.9843 H   0  0  0  0  0  0  0  0  0  0  0  0
  1  2  1  0
  1 35  1  0
  1 36  1  0
  1 37  1  0
  2  3  1  0
  4  3  1  6
  3 38  1  0
  3 39  1  0
  4 26  1  0
  4 30  1  0
  4  5  1  0
  5  6  2  3
  5 40  1  0
  6  7  1  0
  6 41  1  0
  7 15  1  0
  7  8  1  0
  7 42  1  1
  8 14  2  0
  8  9  1  0
  9 10  1  0
  9 11  2  0
 10 43  1  0
 11 12  1  0
 11 44  1  0
 12 13  2  0
 12 45  1  0
 13 34  1  0
 13 14  1  0
 14 15  1  0
 15 28  1  0
 15 16  1  1
 16 17  1  0
 16 46  1  0
 16 47  1  0
 17 18  1  0
 17 48  1  0
 17 49  1  0
 18 33  1  0
 18 19  1  0
 18 50  1  1
 19 20  1  0
 19 51  1  0
 19 52  1  0
 20 21  1  0
 20 53  1  0
 20 54  1  0
 21 22  1  0
 21 26  1  0
 21 74  1  6
 22 23  1  0
 22 55  1  0
 22 56  1  0
 23 25  1  0
 23 24  1  0
 23 57  1  0
 24 25  1  0
 24 58  1  0
 24 59  1  0
 25 60  1  0
 25 61  1  0
 26 27  1  0
 26 62  1  1
 27 28  1  0
 27 63  1  0
 27 64  1  0
 28 29  1  6
 28 33  1  0
 29 30  1  0
 29 65  1  0
 29 66  1  0
 30 31  1  0
 30 67  1  6
 31 32  1  0
 32 68  1  0
 32 69  1  0
 32 70  1  0
 33 34  1  0
 33 71  1  6
 34 72  1  0
 34 73  1  0
M  CHG  1  21   1
M  END
>  <i_m_ct_stereo_status>  (356) 
1

>  <s_m_source_file>  (356) 
/var/tmp/pbs.5076255.sched01/tmparsu8qf0/123n9qi1oz7.sdf

>  <i_m_source_file_index>  (356) 
29

>  <i_lp_mmshare_version>  (356) 
48012

>  <i_f3d_flags>  (356) 
0

>  <s_epik_input>  (356) 
W0NAQF0xMjNbQ0BAXTQ1W0NAQEhdNltDQEBIXShbQ0gyXVtDSDJdMylbQ0gyXVtDSDJdTihbQ0gyXVtDSF03W0NIMl1bQ0gyXTcpW0NAQEhdKFtDSDJdNClbQ0BdKFtDSDJdT1tDSDNdKShbQ0BASF0oW0NIMl01KU9bQ0gzXSkvW0NIXT1bQ0hdXFtDQEhdMWM4YzJjKFtDSDJdNilbY0hdW2NIXWM4W09IXQ==

>  <s_epik_cmdline>  (356) 
J2VwaWtfcHl0aG9uJywgJy1waHQnLCAnMi4wJywgJy1waCcsICc3LjAnLCAnLXRuJywgJzgnLCAnLW1hJywgJzIwMCcsICctaW1hZScsICc8aW5maWxlLm1hZT4nLCAnLW9tYWUnLCAnPG91dGZpbGUubWFlPic=

>  <r_lp_tautomer_probability>  (356) 
1

>  <r_epik_Ionization_Penalty>  (356) 
0.0031265

>  <r_epik_Ionization_Penalty_Charging>  (356) 
0.00303042

>  <r_epik_Ionization_Penalty_Neutral>  (356) 
9.60801e-05

>  <r_epik_State_Penalty>  (356) 
0.00212919

>  <r_epik_Charging_Adjusted_Penalty>  (356) 
0.00515961

>  <i_epik_Tot_Q>  (356) 
1

>  <i_epik_Tot_abs_Q>  (356) 
1

>  <s_lp_Force_Field>  (356) 
OPLS3e

>  <r_lp_Energy>  (356) 
215.128

>  <b_lp_Chiralities_Consistent>  (356) 
1

>  <s_lp_Variant>  (356) 
108:0-5

>  <s_i_glide_gridfile>  (356) 
pfpi4k_grid

>  <i_i_glide_lignum>  (356) 
29

>  <i_i_glide_rotatable_bonds>  (356) 
6

>  <r_i_docking_score>  (356) 
-1.76028

>  <r_i_glide_ligand_efficiency>  (356) 
-0.0517731

>  <r_i_glide_ligand_efficiency_sa>  (356) 
-0.167725

>  <r_i_glide_ligand_efficiency_ln>  (356) 
-0.388896

>  <r_i_glide_gscore>  (356) 
-1.76028

>  <r_i_glide_lipo>  (356) 
-0.375395

>  <r_i_glide_hbond>  (356) 
0

>  <r_i_glide_metal>  (356) 
-0

>  <r_i_glide_rewards>  (356) 
-0.254703

>  <r_i_glide_evdw>  (356) 
-24.3729

>  <r_i_glide_ecoul>  (356) 
-1.2927

>  <r_i_glide_erotb>  (356) 
0.282363

>  <r_i_glide_esite>  (356) 
0

>  <r_i_glide_emodel>  (356) 
-27.9515

>  <r_i_glide_energy>  (356) 
-25.6656

>  <r_i_glide_einternal>  (356) 
2.09467

>  <r_i_glide_intrahb_reward>  (356) 
-0

>  <i_i_glide_confnum>  (356) 
1

>  <i_i_glide_posenum>  (356) 
5

>  <r_i_glide_eff_state_penalty>  (356) 
0

>  <ligand_id>  (356) 
108

>  <original_smiles>  (356) 
COCC12C=CC3c4c(O)ccc5c4C34CCC3CCN(CC6CC6)C1CC4(CC2OC)C3C5

>  <smiles>  (356) 
[H]Oc1c([H])c([H])c2c3c1C1([H])C([H])=C([H])C4(C([H])([H])OC([H])([H])[H])C([H])(OC([H])([H])[H])C([H])([H])C56C([H])([H])C4([H])[N+]([H])(C([H])([H])C4([H])C([H])([H])C4([H])[H])C([H])([H])C([H])([H])C([H])(C([H])([H])C([H])([H])C315)C6([H])C2([H])[H]

$$$$
109:0:0
     RDKit          3D

 43 47  0  0  1  0  0  0  0  0999 V2000
    2.2299   -2.7848    1.9965 C   0  0  0  0  0  0  0  0  0  0  0  0
    1.3468   -2.5002    3.0639 O   0  0  0  0  0  0  0  0  0  0  0  0
    0.9888   -1.1913    3.2791 C   0  0  0  0  0  0  0  0  0  0  0  0
    1.1179   -0.1518    2.3177 C   0  0  0  0  0  0  0  0  0  0  0  0
    0.6916    1.1545    2.6241 C   0  0  0  0  0  0  0  0  0  0  0  0
    0.1336    1.4212    3.8837 C   0  0  0  0  0  0  0  0  0  0  0  0
   -0.0088    0.3921    4.8425 C   0  0  0  0  0  0  0  0  0  0  0  0
    0.4232   -0.9043    4.5356 C   0  0  0  0  0  0  0  0  0  0  0  0
   -0.5278    0.6411    6.0930 O   0  0  0  0  0  0  0  0  0  0  0  0
   -1.4582    1.6839    6.2307 C   0  0  1  0  0  0  0  0  0  0  0  0
   -1.6824    1.9828    7.6316 N   0  0  0  0  0  0  0  0  0  0  0  0
   -2.9256    2.7195    7.8804 C   0  0  0  0  0  0  0  0  0  0  0  0
   -3.1806    2.8961    9.3831 C   0  0  0  0  0  0  0  0  0  0  0  0
   -2.0184    3.5881   10.0714 C   0  0  0  0  0  0  0  0  0  0  0  0
   -0.7392    2.8271    9.7724 C   0  0  0  0  0  0  0  0  0  0  0  0
   -0.5364    2.6570    8.2619 C   0  0  0  0  0  0  0  0  0  0  0  0
   -2.0054    5.0931   10.2321 C   0  0  0  0  0  0  0  0  0  0  0  0
   -2.2109    4.1992   11.4370 C   0  0  0  0  0  0  0  0  0  0  0  0
   -1.0623    2.8603    5.3617 C   0  0  0  0  0  0  0  0  0  0  0  0
   -1.3815    4.1468    5.5169 N   0  0  0  0  0  0  0  0  0  0  0  0
   -0.7745    4.8366    4.4671 N   0  0  0  0  0  0  0  0  0  0  0  0
   -0.1547    3.8986    3.7491 C   0  0  0  0  0  0  0  0  0  0  0  0
   -0.3310    2.6792    4.2697 N   0  0  0  0  0  0  0  0  0  0  0  0
    2.4061   -3.8605    1.9749 H   0  0  0  0  0  0  0  0  0  0  0  0
    3.1851   -2.2868    2.1617 H   0  0  0  0  0  0  0  0  0  0  0  0
    1.8227   -2.4978    1.0272 H   0  0  0  0  0  0  0  0  0  0  0  0
    1.5096   -0.3312    1.3274 H   0  0  0  0  0  0  0  0  0  0  0  0
    0.7770    1.9451    1.8919 H   0  0  0  0  0  0  0  0  0  0  0  0
    0.3088   -1.7002    5.2640 H   0  0  0  0  0  0  0  0  0  0  0  0
   -2.3749    1.2863    5.8012 H   0  0  0  0  0  0  0  0  0  0  0  0
   -2.9019    3.7134    7.4338 H   0  0  0  0  0  0  0  0  0  0  0  0
   -3.7548    2.1816    7.4214 H   0  0  0  0  0  0  0  0  0  0  0  0
   -4.0790    3.5010    9.5000 H   0  0  0  0  0  0  0  0  0  0  0  0
   -3.3534    1.9421    9.8821 H   0  0  0  0  0  0  0  0  0  0  0  0
    0.1074    3.3849   10.1756 H   0  0  0  0  0  0  0  0  0  0  0  0
   -0.7660    1.8575   10.2755 H   0  0  0  0  0  0  0  0  0  0  0  0
    0.3765    2.0847    8.0771 H   0  0  0  0  0  0  0  0  0  0  0  0
   -0.3819    3.6492    7.8317 H   0  0  0  0  0  0  0  0  0  0  0  0
   -1.0483    5.6053   10.1442 H   0  0  0  0  0  0  0  0  0  0  0  0
   -2.8692    5.6514    9.8734 H   0  0  0  0  0  0  0  0  0  0  0  0
   -3.2066    4.1443   11.8739 H   0  0  0  0  0  0  0  0  0  0  0  0
   -1.3925    4.0962   12.1474 H   0  0  0  0  0  0  0  0  0  0  0  0
    0.4286    4.1217    2.8801 H   0  0  0  0  0  0  0  0  0  0  0  0
  1  2  1  0
  1 24  1  0
  1 25  1  0
  1 26  1  0
  2  3  1  0
  3  8  2  0
  3  4  1  0
  4  5  2  0
  4 27  1  0
  5  6  1  0
  5 28  1  0
  6 23  1  0
  6  7  2  0
  7  8  1  0
  7  9  1  0
  8 29  1  0
  9 10  1  0
 10 11  1  0
 10 19  1  0
 10 30  1  6
 11 16  1  0
 11 12  1  0
 12 13  1  0
 12 31  1  0
 12 32  1  0
 13 14  1  0
 13 33  1  0
 13 34  1  0
 14 18  1  0
 14 15  1  0
 14 17  1  0
 15 16  1  0
 15 35  1  0
 15 36  1  0
 16 37  1  0
 16 38  1  0
 17 18  1  0
 17 39  1  0
 17 40  1  0
 18 41  1  0
 18 42  1  0
 19 23  1  0
 19 20  2  0
 20 21  1  0
 21 22  2  0
 22 23  1  0
 22 43  1  0
M  END
>  <i_m_ct_stereo_status>  (357) 
1

>  <s_m_source_file>  (357) 
/var/tmp/pbs.5076255.sched01/tmparsu8qf0/123n9qi1oz7.sdf

>  <i_m_source_file_index>  (357) 
31

>  <i_lp_mmshare_version>  (357) 
48012

>  <i_f3d_flags>  (357) 
0

>  <s_epik_input>  (357) 
W0NIM11PYyhbY0hdW2NIXTEpW2NIXWMoYzEyKU9bQ0BIXShjM24yW2NIXW5uMylOKFtDSDJdW0NIMl00KVtDSDJdW0NIMl1DNDVbQ0gyXVtDSDJdNQ==

>  <s_epik_cmdline>  (357) 
J2VwaWtfcHl0aG9uJywgJy1waHQnLCAnMi4wJywgJy1waCcsICc3LjAnLCAnLXRuJywgJzgnLCAnLW1hJywgJzIwMCcsICctaW1hZScsICc8aW5maWxlLm1hZT4nLCAnLW9tYWUnLCAnPG91dGZpbGUubWFlPic=

>  <r_lp_tautomer_probability>  (357) 
1

>  <r_epik_Ionization_Penalty>  (357) 
0.000816783

>  <r_epik_Ionization_Penalty_Charging>  (357) 
0

>  <r_epik_Ionization_Penalty_Neutral>  (357) 
0.000816783

>  <r_epik_State_Penalty>  (357) 
0.000507812

>  <r_epik_Charging_Adjusted_Penalty>  (357) 
0.000507812

>  <i_epik_Tot_Q>  (357) 
0

>  <i_epik_Tot_abs_Q>  (357) 
0

>  <s_epik_Chemistry_Notes>  (357) 
This compound contains an acetal/aminal-like group ( X-CH(R)-Y where X, Y are N, S, or O) that may be acid/base labile, releasing an aldehyde.

>  <s_lp_Force_Field>  (357) 
OPLS3e

>  <r_lp_Energy>  (357) 
25.2061

>  <b_lp_Chiralities_Consistent>  (357) 
1

>  <s_lp_Variant>  (357) 
109:0-1

>  <s_i_glide_gridfile>  (357) 
pfpi4k_grid

>  <i_i_glide_lignum>  (357) 
31

>  <i_i_glide_rotatable_bonds>  (357) 
2

>  <r_i_docking_score>  (357) 
-3.12365

>  <r_i_glide_ligand_efficiency>  (357) 
-0.135811

>  <r_i_glide_ligand_efficiency_sa>  (357) 
-0.386229

>  <r_i_glide_ligand_efficiency_ln>  (357) 
-0.755328

>  <r_i_glide_gscore>  (357) 
-3.12365

>  <r_i_glide_lipo>  (357) 
-0.148089

>  <r_i_glide_hbond>  (357) 
0

>  <r_i_glide_metal>  (357) 
-0

>  <r_i_glide_rewards>  (357) 
-1.27932

>  <r_i_glide_evdw>  (357) 
-19.8263

>  <r_i_glide_ecoul>  (357) 
-4.32168

>  <r_i_glide_erotb>  (357) 
0.190204

>  <r_i_glide_esite>  (357) 
-0.246883

>  <r_i_glide_emodel>  (357) 
-27.9233

>  <r_i_glide_energy>  (357) 
-24.148

>  <r_i_glide_einternal>  (357) 
3.17142

>  <r_i_glide_intrahb_reward>  (357) 
-0

>  <i_i_glide_confnum>  (357) 
1

>  <i_i_glide_posenum>  (357) 
14

>  <r_i_glide_eff_state_penalty>  (357) 
0

>  <ligand_id>  (357) 
109

>  <original_smiles>  (357) 
COc1ccc2c(c1)OC(N1CCC3(CC1)CC3)c1nncn1-2

>  <smiles>  (357) 
[H]c1c([H])c2c(c([H])c1OC([H])([H])[H])OC([H])(N1C([H])([H])C([H])([H])C3(C([H])([H])C1([H])[H])C([H])([H])C3([H])[H])c1nnc([H])n1-2

$$$$
109:0:1
     RDKit          3D

 43 47  0  0  1  0  0  0  0  0999 V2000
    1.8142   -9.0447    1.9343 C   0  0  0  0  0  0  0  0  0  0  0  0
    1.7155   -7.6316    1.9654 O   0  0  0  0  0  0  0  0  0  0  0  0
    1.2733   -7.0352    3.1256 C   0  0  0  0  0  0  0  0  0  0  0  0
    0.8485   -7.7282    4.2945 C   0  0  0  0  0  0  0  0  0  0  0  0
    0.4178   -7.0148    5.4368 C   0  0  0  0  0  0  0  0  0  0  0  0
    0.4162   -5.6052    5.4159 C   0  0  0  0  0  0  0  0  0  0  0  0
    0.8409   -4.9213    4.2587 C   0  0  0  0  0  0  0  0  0  0  0  0
    1.2517   -5.6292    3.1233 C   0  0  0  0  0  0  0  0  0  0  0  0
    0.8057   -3.5536    4.1948 O   0  0  0  0  0  0  0  0  0  0  0  0
    0.9966   -2.8194    5.3777 C   0  0  1  0  0  0  0  0  0  0  0  0
    0.6631   -1.4372    5.1295 N   0  0  0  0  0  0  0  0  0  0  0  0
   -0.7343   -1.2573    4.7199 C   0  0  0  0  0  0  0  0  0  0  0  0
   -1.0769    0.2258    4.5175 C   0  0  0  0  0  0  0  0  0  0  0  0
   -0.1655    0.8793    3.4958 C   0  0  0  0  0  0  0  0  0  0  0  0
    1.2782    0.6249    3.8817 C   0  0  0  0  0  0  0  0  0  0  0  0
    1.5450   -0.8707    4.1010 C   0  0  0  0  0  0  0  0  0  0  0  0
   -0.5670    0.9417    2.0393 C   0  0  0  0  0  0  0  0  0  0  0  0
   -0.5455    2.2012    2.8777 C   0  0  0  0  0  0  0  0  0  0  0  0
    0.2518   -3.4740    6.5169 C   0  0  0  0  0  0  0  0  0  0  0  0
   -0.1933   -2.9141    7.6496 N   0  0  0  0  0  0  0  0  0  0  0  0
   -0.7944   -3.9512    8.3752 N   0  0  0  0  0  0  0  0  0  0  0  0
   -0.6204   -5.0526    7.6314 C   0  0  0  0  0  0  0  0  0  0  0  0
    0.0239   -4.7864    6.4903 N   0  0  0  0  0  0  0  0  0  0  0  0
    2.1905   -9.3495    0.9582 H   0  0  0  0  0  0  0  0  0  0  0  0
    0.8378   -9.5063    2.0801 H   0  0  0  0  0  0  0  0  0  0  0  0
    2.5109   -9.4085    2.6894 H   0  0  0  0  0  0  0  0  0  0  0  0
    0.8555   -8.8051    4.3367 H   0  0  0  0  0  0  0  0  0  0  0  0
    0.1000   -7.5539    6.3168 H   0  0  0  0  0  0  0  0  0  0  0  0
    1.5705   -5.0836    2.2473 H   0  0  0  0  0  0  0  0  0  0  0  0
    2.0533   -2.8951    5.6369 H   0  0  0  0  0  0  0  0  0  0  0  0
   -0.9195   -1.8014    3.7942 H   0  0  0  0  0  0  0  0  0  0  0  0
   -1.4033   -1.6738    5.4699 H   0  0  0  0  0  0  0  0  0  0  0  0
   -2.1071    0.3037    4.1735 H   0  0  0  0  0  0  0  0  0  0  0  0
   -1.0070    0.7731    5.4584 H   0  0  0  0  0  0  0  0  0  0  0  0
    1.9298    0.9877    3.0860 H   0  0  0  0  0  0  0  0  0  0  0  0
    1.5189    1.1906    4.7822 H   0  0  0  0  0  0  0  0  0  0  0  0
    2.5872   -1.0119    4.3944 H   0  0  0  0  0  0  0  0  0  0  0  0
    1.4094   -1.4025    3.1539 H   0  0  0  0  0  0  0  0  0  0  0  0
    0.2109    0.8308    1.2843 H   0  0  0  0  0  0  0  0  0  0  0  0
   -1.5441    0.5568    1.7540 H   0  0  0  0  0  0  0  0  0  0  0  0
   -1.5031    2.6359    3.1556 H   0  0  0  0  0  0  0  0  0  0  0  0
    0.2519    2.9174    2.6877 H   0  0  0  0  0  0  0  0  0  0  0  0
   -0.9671   -6.0335    7.9186 H   0  0  0  0  0  0  0  0  0  0  0  0
  1  2  1  0
  1 24  1  0
  1 25  1  0
  1 26  1  0
  2  3  1  0
  3  8  2  0
  3  4  1  0
  4  5  2  0
  4 27  1  0
  5  6  1  0
  5 28  1  0
  6 23  1  0
  6  7  2  0
  7  8  1  0
  7  9  1  0
  8 29  1  0
  9 10  1  0
 10 11  1  0
 10 19  1  0
 10 30  1  1
 11 16  1  0
 11 12  1  0
 12 13  1  0
 12 31  1  0
 12 32  1  0
 13 14  1  0
 13 33  1  0
 13 34  1  0
 14 18  1  0
 14 15  1  0
 14 17  1  0
 15 16  1  0
 15 35  1  0
 15 36  1  0
 16 37  1  0
 16 38  1  0
 17 18  1  0
 17 39  1  0
 17 40  1  0
 18 41  1  0
 18 42  1  0
 19 23  1  0
 19 20  2  0
 20 21  1  0
 21 22  2  0
 22 23  1  0
 22 43  1  0
M  END
>  <i_m_ct_stereo_status>  (358) 
1

>  <s_m_source_file>  (358) 
/var/tmp/pbs.5076255.sched01/tmparsu8qf0/123n9qi1oz7.sdf

>  <i_m_source_file_index>  (358) 
31

>  <i_lp_mmshare_version>  (358) 
48012

>  <i_f3d_flags>  (358) 
0

>  <s_epik_input>  (358) 
W0NIM11PYyhbY0hdW2NIXTEpW2NIXWMoYzEyKU9bQ0BIXShjM24yW2NIXW5uMylOKFtDSDJdW0NIMl00KVtDSDJdW0NIMl1DNDVbQ0gyXVtDSDJdNQ==

>  <s_epik_cmdline>  (358) 
J2VwaWtfcHl0aG9uJywgJy1waHQnLCAnMi4wJywgJy1waCcsICc3LjAnLCAnLXRuJywgJzgnLCAnLW1hJywgJzIwMCcsICctaW1hZScsICc8aW5maWxlLm1hZT4nLCAnLW9tYWUnLCAnPG91dGZpbGUubWFlPic=

>  <r_lp_tautomer_probability>  (358) 
1

>  <r_epik_Ionization_Penalty>  (358) 
0.000816783

>  <r_epik_Ionization_Penalty_Charging>  (358) 
0

>  <r_epik_Ionization_Penalty_Neutral>  (358) 
0.000816783

>  <r_epik_State_Penalty>  (358) 
0.000507812

>  <r_epik_Charging_Adjusted_Penalty>  (358) 
0.000507812

>  <i_epik_Tot_Q>  (358) 
0

>  <i_epik_Tot_abs_Q>  (358) 
0

>  <s_epik_Chemistry_Notes>  (358) 
This compound contains an acetal/aminal-like group ( X-CH(R)-Y where X, Y are N, S, or O) that may be acid/base labile, releasing an aldehyde.

>  <s_lp_Force_Field>  (358) 
OPLS3e

>  <r_lp_Energy>  (358) 
25.2061

>  <b_lp_Chiralities_Consistent>  (358) 
1

>  <s_lp_Variant>  (358) 
109:0-1

>  <s_i_glide_gridfile>  (358) 
pfpi4k_grid

>  <i_i_glide_lignum>  (358) 
31

>  <i_i_glide_rotatable_bonds>  (358) 
2

>  <r_i_docking_score>  (358) 
-2.76309

>  <r_i_glide_ligand_efficiency>  (358) 
-0.120134

>  <r_i_glide_ligand_efficiency_sa>  (358) 
-0.341646

>  <r_i_glide_ligand_efficiency_ln>  (358) 
-0.66814

>  <r_i_glide_gscore>  (358) 
-2.76309

>  <r_i_glide_lipo>  (358) 
-0.0307486

>  <r_i_glide_hbond>  (358) 
0

>  <r_i_glide_metal>  (358) 
-0

>  <r_i_glide_rewards>  (358) 
-1.33984

>  <r_i_glide_evdw>  (358) 
-20.2422

>  <r_i_glide_ecoul>  (358) 
-3.01342

>  <r_i_glide_erotb>  (358) 
0.190204

>  <r_i_glide_esite>  (358) 
-0.118582

>  <r_i_glide_emodel>  (358) 
-28.0362

>  <r_i_glide_energy>  (358) 
-23.2556

>  <r_i_glide_einternal>  (358) 
0.031059

>  <r_i_glide_intrahb_reward>  (358) 
-0

>  <i_i_glide_confnum>  (358) 
2

>  <i_i_glide_posenum>  (358) 
7

>  <r_i_glide_eff_state_penalty>  (358) 
0

>  <ligand_id>  (358) 
109

>  <original_smiles>  (358) 
COc1ccc2c(c1)OC(N1CCC3(CC1)CC3)c1nncn1-2

>  <smiles>  (358) 
[H]c1c([H])c2c(c([H])c1OC([H])([H])[H])OC([H])(N1C([H])([H])C([H])([H])C3(C([H])([H])C1([H])[H])C([H])([H])C3([H])[H])c1nnc([H])n1-2

$$$$
109:0:2
     RDKit          3D

 43 47  0  0  1  0  0  0  0  0999 V2000
   -1.7714   -9.0095    2.7162 C   0  0  0  0  0  0  0  0  0  0  0  0
   -1.0112   -8.1540    1.8857 O   0  0  0  0  0  0  0  0  0  0  0  0
   -0.0568   -7.3551    2.4669 C   0  0  0  0  0  0  0  0  0  0  0  0
    0.1359   -7.2015    3.8672 C   0  0  0  0  0  0  0  0  0  0  0  0
    1.1430   -6.3423    4.3623 C   0  0  0  0  0  0  0  0  0  0  0  0
    1.9619   -5.6402    3.4566 C   0  0  0  0  0  0  0  0  0  0  0  0
    1.7735   -5.7969    2.0680 C   0  0  0  0  0  0  0  0  0  0  0  0
    0.7652   -6.6383    1.5804 C   0  0  0  0  0  0  0  0  0  0  0  0
    2.5245   -5.0867    1.1700 O   0  0  0  0  0  0  0  0  0  0  0  0
    3.8424   -4.7435    1.5201 C   0  0  1  0  0  0  0  0  0  0  0  0
    4.3582   -3.8026    0.5544 N   0  0  0  0  0  0  0  0  0  0  0  0
    4.3947   -4.4000   -0.7856 C   0  0  0  0  0  0  0  0  0  0  0  0
    5.0126   -3.4545   -1.8253 C   0  0  0  0  0  0  0  0  0  0  0  0
    4.2494   -2.1455   -1.8856 C   0  0  0  0  0  0  0  0  0  0  0  0
    4.1780   -1.5565   -0.4905 C   0  0  0  0  0  0  0  0  0  0  0  0
    3.5756   -2.5588    0.5050 C   0  0  0  0  0  0  0  0  0  0  0  0
    4.3529   -1.2426   -3.0900 C   0  0  0  0  0  0  0  0  0  0  0  0
    3.0756   -2.0073   -2.8235 C   0  0  0  0  0  0  0  0  0  0  0  0
    3.8931   -4.2959    2.9621 C   0  0  0  0  0  0  0  0  0  0  0  0
    4.7933   -3.5002    3.5558 N   0  0  0  0  0  0  0  0  0  0  0  0
    4.4187   -3.4422    4.9047 N   0  0  0  0  0  0  0  0  0  0  0  0
    3.3335   -4.2222    5.0053 C   0  0  0  0  0  0  0  0  0  0  0  0
    3.0009   -4.7690    3.8305 N   0  0  0  0  0  0  0  0  0  0  0  0
   -2.4536   -9.5805    2.0880 H   0  0  0  0  0  0  0  0  0  0  0  0
   -2.3678   -8.4375    3.4261 H   0  0  0  0  0  0  0  0  0  0  0  0
   -1.1306   -9.7127    3.2488 H   0  0  0  0  0  0  0  0  0  0  0  0
   -0.4719   -7.7450    4.5738 H   0  0  0  0  0  0  0  0  0  0  0  0
    1.2815   -6.2315    5.4288 H   0  0  0  0  0  0  0  0  0  0  0  0
    0.6305   -6.7437    0.5116 H   0  0  0  0  0  0  0  0  0  0  0  0
    4.4328   -5.6581    1.4827 H   0  0  0  0  0  0  0  0  0  0  0  0
    4.9570   -5.3334   -0.7620 H   0  0  0  0  0  0  0  0  0  0  0  0
    3.3813   -4.6486   -1.1105 H   0  0  0  0  0  0  0  0  0  0  0  0
    6.0643   -3.2621   -1.6070 H   0  0  0  0  0  0  0  0  0  0  0  0
    4.9618   -3.9437   -2.7972 H   0  0  0  0  0  0  0  0  0  0  0  0
    5.1746   -1.2507   -0.1707 H   0  0  0  0  0  0  0  0  0  0  0  0
    3.5517   -0.6651   -0.5092 H   0  0  0  0  0  0  0  0  0  0  0  0
    2.5426   -2.7730    0.2160 H   0  0  0  0  0  0  0  0  0  0  0  0
    3.5366   -2.0984    1.4936 H   0  0  0  0  0  0  0  0  0  0  0  0
    4.3412   -0.1668   -2.9185 H   0  0  0  0  0  0  0  0  0  0  0  0
    4.9662   -1.5767   -3.9234 H   0  0  0  0  0  0  0  0  0  0  0  0
    2.8355   -2.8465   -3.4723 H   0  0  0  0  0  0  0  0  0  0  0  0
    2.2235   -1.4418   -2.4664 H   0  0  0  0  0  0  0  0  0  0  0  0
    2.7918   -4.3828    5.9244 H   0  0  0  0  0  0  0  0  0  0  0  0
  1  2  1  0
  1 24  1  0
  1 25  1  0
  1 26  1  0
  2  3  1  0
  3  8  2  0
  3  4  1  0
  4  5  2  0
  4 27  1  0
  5  6  1  0
  5 28  1  0
  6 23  1  0
  6  7  2  0
  7  8  1  0
  7  9  1  0
  8 29  1  0
  9 10  1  0
 10 11  1  0
 10 19  1  0
 10 30  1  1
 11 16  1  0
 11 12  1  0
 12 13  1  0
 12 31  1  0
 12 32  1  0
 13 14  1  0
 13 33  1  0
 13 34  1  0
 14 18  1  0
 14 15  1  0
 14 17  1  0
 15 16  1  0
 15 35  1  0
 15 36  1  0
 16 37  1  0
 16 38  1  0
 17 18  1  0
 17 39  1  0
 17 40  1  0
 18 41  1  0
 18 42  1  0
 19 23  1  0
 19 20  2  0
 20 21  1  0
 21 22  2  0
 22 23  1  0
 22 43  1  0
M  END
>  <i_m_ct_stereo_status>  (359) 
1

>  <s_m_source_file>  (359) 
/var/tmp/pbs.5076255.sched01/tmparsu8qf0/123n9qi1oz7.sdf

>  <i_m_source_file_index>  (359) 
31

>  <i_lp_mmshare_version>  (359) 
48012

>  <i_f3d_flags>  (359) 
0

>  <s_epik_input>  (359) 
W0NIM11PYyhbY0hdW2NIXTEpW2NIXWMoYzEyKU9bQ0BIXShjM24yW2NIXW5uMylOKFtDSDJdW0NIMl00KVtDSDJdW0NIMl1DNDVbQ0gyXVtDSDJdNQ==

>  <s_epik_cmdline>  (359) 
J2VwaWtfcHl0aG9uJywgJy1waHQnLCAnMi4wJywgJy1waCcsICc3LjAnLCAnLXRuJywgJzgnLCAnLW1hJywgJzIwMCcsICctaW1hZScsICc8aW5maWxlLm1hZT4nLCAnLW9tYWUnLCAnPG91dGZpbGUubWFlPic=

>  <r_lp_tautomer_probability>  (359) 
1

>  <r_epik_Ionization_Penalty>  (359) 
0.000816783

>  <r_epik_Ionization_Penalty_Charging>  (359) 
0

>  <r_epik_Ionization_Penalty_Neutral>  (359) 
0.000816783

>  <r_epik_State_Penalty>  (359) 
0.000507812

>  <r_epik_Charging_Adjusted_Penalty>  (359) 
0.000507812

>  <i_epik_Tot_Q>  (359) 
0

>  <i_epik_Tot_abs_Q>  (359) 
0

>  <s_epik_Chemistry_Notes>  (359) 
This compound contains an acetal/aminal-like group ( X-CH(R)-Y where X, Y are N, S, or O) that may be acid/base labile, releasing an aldehyde.

>  <s_lp_Force_Field>  (359) 
OPLS3e

>  <r_lp_Energy>  (359) 
25.2061

>  <b_lp_Chiralities_Consistent>  (359) 
1

>  <s_lp_Variant>  (359) 
109:0-1

>  <s_i_glide_gridfile>  (359) 
pfpi4k_grid

>  <i_i_glide_lignum>  (359) 
31

>  <i_i_glide_rotatable_bonds>  (359) 
2

>  <r_i_docking_score>  (359) 
-2.62497

>  <r_i_glide_ligand_efficiency>  (359) 
-0.114129

>  <r_i_glide_ligand_efficiency_sa>  (359) 
-0.324568

>  <r_i_glide_ligand_efficiency_ln>  (359) 
-0.634742

>  <r_i_glide_gscore>  (359) 
-2.62497

>  <r_i_glide_lipo>  (359) 
-0.169364

>  <r_i_glide_hbond>  (359) 
0

>  <r_i_glide_metal>  (359) 
-0

>  <r_i_glide_rewards>  (359) 
-1.29708

>  <r_i_glide_evdw>  (359) 
-23.8282

>  <r_i_glide_ecoul>  (359) 
-1.04882

>  <r_i_glide_erotb>  (359) 
0.190204

>  <r_i_glide_esite>  (359) 
0

>  <r_i_glide_emodel>  (359) 
-29.4344

>  <r_i_glide_energy>  (359) 
-24.877

>  <r_i_glide_einternal>  (359) 
0.0722

>  <r_i_glide_intrahb_reward>  (359) 
-0

>  <i_i_glide_confnum>  (359) 
4

>  <i_i_glide_posenum>  (359) 
2

>  <r_i_glide_eff_state_penalty>  (359) 
0

>  <ligand_id>  (359) 
109

>  <original_smiles>  (359) 
COc1ccc2c(c1)OC(N1CCC3(CC1)CC3)c1nncn1-2

>  <smiles>  (359) 
[H]c1c([H])c2c(c([H])c1OC([H])([H])[H])OC([H])(N1C([H])([H])C([H])([H])C3(C([H])([H])C1([H])[H])C([H])([H])C3([H])[H])c1nnc([H])n1-2

$$$$
110:0:0
     RDKit          3D

 34 37  0  0  1  0  0  0  0  0999 V2000
    4.2144   -0.8946   -2.2529 C   0  0  0  0  0  0  0  0  0  0  0  0
    4.8463   -1.6192   -1.0602 C   0  0  1  0  0  0  0  0  0  0  0  0
    5.0575   -0.6631    0.2052 C   0  0  0  0  0  0  0  0  0  0  0  0
    5.4365   -1.4231    1.5091 C   0  0  0  0  0  0  0  0  0  0  0  0
    6.1381   -0.9898    2.4178 O   0  0  0  0  0  0  0  0  0  0  0  0
    4.7788   -2.7747    1.4761 C   0  0  1  0  0  0  0  0  0  0  0  0
    3.3263   -2.2738    1.7367 C   0  0  0  0  0  0  0  0  0  0  0  0
    2.5191   -3.2174    2.1929 C   0  0  0  0  0  0  0  0  0  0  0  0
    3.2648   -4.4873    2.0633 C   0  0  1  0  0  0  0  0  0  0  0  0
    2.9769   -4.9090    0.5499 C   0  0  0  0  0  0  0  0  0  0  0  0
    2.9724   -3.7720   -0.5958 C   0  0  0  0  0  0  0  0  0  0  0  0
    4.3741   -3.1363   -0.9277 C   0  0  2  0  0  0  0  0  0  0  0  0
    5.3147   -3.4664    0.1451 C   0  0  1  0  0  0  0  0  0  0  0  0
    6.6335   -2.9674   -0.5104 C   0  0  0  0  0  0  0  0  0  0  0  0
    6.2161   -1.8857   -1.3544 O   0  0  0  0  0  0  0  0  0  0  0  0
    4.7029   -3.9495    2.4570 C   0  0  0  0  0  0  0  0  0  0  0  0
    3.1649   -0.6749   -2.0512 H   0  0  0  0  0  0  0  0  0  0  0  0
    4.2613   -1.4989   -3.1598 H   0  0  0  0  0  0  0  0  0  0  0  0
    4.7190    0.0500   -2.4486 H   0  0  0  0  0  0  0  0  0  0  0  0
    5.8533    0.0554    0.0053 H   0  0  0  0  0  0  0  0  0  0  0  0
    4.1621   -0.0710    0.3841 H   0  0  0  0  0  0  0  0  0  0  0  0
    2.9883   -1.2515    1.6606 H   0  0  0  0  0  0  0  0  0  0  0  0
    1.4799   -3.1351    2.4718 H   0  0  0  0  0  0  0  0  0  0  0  0
    2.9144   -5.2356    2.7774 H   0  0  0  0  0  0  0  0  0  0  0  0
    3.6304   -5.7362    0.2637 H   0  0  0  0  0  0  0  0  0  0  0  0
    1.9795   -5.3485    0.5389 H   0  0  0  0  0  0  0  0  0  0  0  0
    2.6118   -4.2441   -1.5098 H   0  0  0  0  0  0  0  0  0  0  0  0
    2.2214   -2.9985   -0.4270 H   0  0  0  0  0  0  0  0  0  0  0  0
    4.6828   -3.6547   -1.8405 H   0  0  0  0  0  0  0  0  0  0  0  0
    5.4463   -4.5447    0.2419 H   0  0  0  0  0  0  0  0  0  0  0  0
    7.4088   -2.6789    0.2050 H   0  0  0  0  0  0  0  0  0  0  0  0
    7.0584   -3.7488   -1.1449 H   0  0  0  0  0  0  0  0  0  0  0  0
    5.4999   -4.6872    2.3677 H   0  0  0  0  0  0  0  0  0  0  0  0
    4.7218   -3.5922    3.4869 H   0  0  0  0  0  0  0  0  0  0  0  0
  2  1  1  6
  1 17  1  0
  1 18  1  0
  1 19  1  0
  2 12  1  0
  2 15  1  0
  2  3  1  0
  3  4  1  0
  3 20  1  0
  3 21  1  0
  4  5  2  0
  6  4  1  1
  6 13  1  0
  6 16  1  0
  6  7  1  0
  7  8  2  0
  7 22  1  0
  8  9  1  0
  8 23  1  0
  9 10  1  0
  9 16  1  0
  9 24  1  1
 10 11  1  0
 10 25  1  0
 10 26  1  0
 11 12  1  0
 11 27  1  0
 11 28  1  0
 12 13  1  0
 12 29  1  6
 13 14  1  0
 13 30  1  1
 14 15  1  0
 14 31  1  0
 14 32  1  0
 16 33  1  0
 16 34  1  0
M  END
>  <i_m_ct_stereo_status>  (360) 
1

>  <s_m_source_file>  (360) 
/var/tmp/pbs.5076255.sched01/tmparsu8qf0/123n9qi1oz7.sdf

>  <i_m_source_file_index>  (360) 
32

>  <i_lp_mmshare_version>  (360) 
48012

>  <i_f3d_flags>  (360) 
0

>  <s_epik_input>  (360) 
Tz1DMVtDSDJdW0NAQF0oW0NIM10pKE9bQ0gyXTIpW0NAQEhdKFtDQEBIXTJbQ0BAXTEzNClbQ0gyXVtDSDJdW0NAQEhdKFtDSDJdNClbQ0hdPVtDSF0z

>  <s_epik_cmdline>  (360) 
J2VwaWtfcHl0aG9uJywgJy1waHQnLCAnMi4wJywgJy1waCcsICc3LjAnLCAnLXRuJywgJzgnLCAnLW1hJywgJzIwMCcsICctaW1hZScsICc8aW5maWxlLm1hZT4nLCAnLW9tYWUnLCAnPG91dGZpbGUubWFlPic=

>  <r_lp_tautomer_probability>  (360) 
1

>  <r_epik_Ionization_Penalty>  (360) 
6.82235e-12

>  <r_epik_Ionization_Penalty_Charging>  (360) 
0

>  <r_epik_Ionization_Penalty_Neutral>  (360) 
6.82235e-12

>  <r_epik_State_Penalty>  (360) 
-0

>  <r_epik_Charging_Adjusted_Penalty>  (360) 
0

>  <i_epik_Tot_Q>  (360) 
0

>  <i_epik_Tot_abs_Q>  (360) 
0

>  <s_lp_Force_Field>  (360) 
OPLS3e

>  <r_lp_Energy>  (360) 
98.281

>  <b_lp_Chiralities_Consistent>  (360) 
1

>  <s_lp_Variant>  (360) 
110:0-1

>  <s_i_glide_gridfile>  (360) 
pfpi4k_grid

>  <i_i_glide_lignum>  (360) 
32

>  <i_i_glide_rotatable_bonds>  (360) 
0

>  <r_i_docking_score>  (360) 
-3.84214

>  <r_i_glide_ligand_efficiency>  (360) 
-0.240134

>  <r_i_glide_ligand_efficiency_sa>  (360) 
-0.6051

>  <r_i_glide_ligand_efficiency_ln>  (360) 
-1.01844

>  <r_i_glide_gscore>  (360) 
-3.84214

>  <r_i_glide_lipo>  (360) 
-0.239033

>  <r_i_glide_hbond>  (360) 
-0.148441

>  <r_i_glide_metal>  (360) 
-0

>  <r_i_glide_rewards>  (360) 
-2.09097

>  <r_i_glide_evdw>  (360) 
-19.3275

>  <r_i_glide_ecoul>  (360) 
-2.64884

>  <r_i_glide_erotb>  (360) 
0

>  <r_i_glide_esite>  (360) 
0

>  <r_i_glide_emodel>  (360) 
-27.6223

>  <r_i_glide_energy>  (360) 
-21.9764

>  <r_i_glide_einternal>  (360) 
0

>  <r_i_glide_intrahb_reward>  (360) 
-0

>  <i_i_glide_confnum>  (360) 
2

>  <i_i_glide_posenum>  (360) 
25

>  <r_i_glide_eff_state_penalty>  (360) 
0

>  <ligand_id>  (360) 
110

>  <original_smiles>  (360) 
CC12CC(=O)C34C=CC(CCC1C3CO2)C4

>  <smiles>  (360) 
[H]C1=C([H])C23C(=O)C([H])([H])C4(C([H])([H])[H])OC([H])([H])C2([H])C4([H])C([H])([H])C([H])([H])C1([H])C3([H])[H]

$$$$
110:0:1
     RDKit          3D

 34 37  0  0  1  0  0  0  0  0999 V2000
    3.0217   -1.0099   -3.0134 C   0  0  0  0  0  0  0  0  0  0  0  0
    4.0455   -1.8485   -2.2508 C   0  0  1  0  0  0  0  0  0  0  0  0
    4.9860   -0.9669   -1.3063 C   0  0  0  0  0  0  0  0  0  0  0  0
    5.8675   -1.7967   -0.3265 C   0  0  0  0  0  0  0  0  0  0  0  0
    6.9847   -1.4807    0.0807 O   0  0  0  0  0  0  0  0  0  0  0  0
    5.1132   -3.0447    0.0326 C   0  0  1  0  0  0  0  0  0  0  0  0
    4.0593   -2.3625    0.9546 C   0  0  0  0  0  0  0  0  0  0  0  0
    3.4639   -3.2000    1.7882 C   0  0  0  0  0  0  0  0  0  0  0  0
    3.8855   -4.5532    1.3682 C   0  0  1  0  0  0  0  0  0  0  0  0
    2.8362   -4.9014    0.2183 C   0  0  0  0  0  0  0  0  0  0  0  0
    2.4065   -3.7514   -0.8272 C   0  0  0  0  0  0  0  0  0  0  0  0
    3.5217   -3.2888   -1.8309 C   0  0  2  0  0  0  0  0  0  0  0  0
    4.8201   -3.7670   -1.3581 C   0  0  1  0  0  0  0  0  0  0  0  0
    5.6741   -3.4280   -2.6074 C   0  0  0  0  0  0  0  0  0  0  0  0
    5.0163   -2.2965   -3.1825 O   0  0  0  0  0  0  0  0  0  0  0  0
    5.3839   -4.2230    0.9712 C   0  0  0  0  0  0  0  0  0  0  0  0
    2.2600   -0.6491   -2.3260 H   0  0  0  0  0  0  0  0  0  0  0  0
    2.5325   -1.5923   -3.7937 H   0  0  0  0  0  0  0  0  0  0  0  0
    3.4857   -0.1411   -3.4782 H   0  0  0  0  0  0  0  0  0  0  0  0
    5.6398   -0.3549   -1.9243 H   0  0  0  0  0  0  0  0  0  0  0  0
    4.3847   -0.2631   -0.7321 H   0  0  0  0  0  0  0  0  0  0  0  0
    3.8609   -1.3023    1.0081 H   0  0  0  0  0  0  0  0  0  0  0  0
    2.7142   -2.9886    2.5339 H   0  0  0  0  0  0  0  0  0  0  0  0
    3.8431   -5.2662    2.1940 H   0  0  0  0  0  0  0  0  0  0  0  0
    3.1554   -5.7994   -0.3155 H   0  0  0  0  0  0  0  0  0  0  0  0
    1.9177   -5.2028    0.7227 H   0  0  0  0  0  0  0  0  0  0  0  0
    1.5910   -4.1493   -1.4336 H   0  0  0  0  0  0  0  0  0  0  0  0
    1.9477   -2.8923   -0.3414 H   0  0  0  0  0  0  0  0  0  0  0  0
    3.2656   -3.8152   -2.7568 H   0  0  0  0  0  0  0  0  0  0  0  0
    4.8480   -4.8543   -1.2971 H   0  0  0  0  0  0  0  0  0  0  0  0
    6.7312   -3.2484   -2.3983 H   0  0  0  0  0  0  0  0  0  0  0  0
    5.6203   -4.2410   -3.3331 H   0  0  0  0  0  0  0  0  0  0  0  0
    5.9281   -5.0581    0.5272 H   0  0  0  0  0  0  0  0  0  0  0  0
    5.9604   -3.8996    1.8387 H   0  0  0  0  0  0  0  0  0  0  0  0
  2  1  1  6
  1 17  1  0
  1 18  1  0
  1 19  1  0
  2 12  1  0
  2 15  1  0
  2  3  1  0
  3  4  1  0
  3 20  1  0
  3 21  1  0
  4  5  2  0
  6  4  1  6
  6 13  1  0
  6 16  1  0
  6  7  1  0
  7  8  2  0
  7 22  1  0
  8  9  1  0
  8 23  1  0
  9 10  1  0
  9 16  1  0
  9 24  1  1
 10 11  1  0
 10 25  1  0
 10 26  1  0
 11 12  1  0
 11 27  1  0
 11 28  1  0
 12 13  1  0
 12 29  1  6
 13 14  1  0
 13 30  1  1
 14 15  1  0
 14 31  1  0
 14 32  1  0
 16 33  1  0
 16 34  1  0
M  END
>  <i_m_ct_stereo_status>  (361) 
1

>  <s_m_source_file>  (361) 
/var/tmp/pbs.5076255.sched01/tmparsu8qf0/123n9qi1oz7.sdf

>  <i_m_source_file_index>  (361) 
32

>  <i_lp_mmshare_version>  (361) 
48012

>  <i_f3d_flags>  (361) 
0

>  <s_epik_input>  (361) 
Tz1DMVtDSDJdW0NAQF0oW0NIM10pKE9bQ0gyXTIpW0NAQEhdKFtDQEBIXTJbQ0BAXTEzNClbQ0gyXVtDSDJdW0NAQEhdKFtDSDJdNClbQ0hdPVtDSF0z

>  <s_epik_cmdline>  (361) 
J2VwaWtfcHl0aG9uJywgJy1waHQnLCAnMi4wJywgJy1waCcsICc3LjAnLCAnLXRuJywgJzgnLCAnLW1hJywgJzIwMCcsICctaW1hZScsICc8aW5maWxlLm1hZT4nLCAnLW9tYWUnLCAnPG91dGZpbGUubWFlPic=

>  <r_lp_tautomer_probability>  (361) 
1

>  <r_epik_Ionization_Penalty>  (361) 
6.82235e-12

>  <r_epik_Ionization_Penalty_Charging>  (361) 
0

>  <r_epik_Ionization_Penalty_Neutral>  (361) 
6.82235e-12

>  <r_epik_State_Penalty>  (361) 
-0

>  <r_epik_Charging_Adjusted_Penalty>  (361) 
0

>  <i_epik_Tot_Q>  (361) 
0

>  <i_epik_Tot_abs_Q>  (361) 
0

>  <s_lp_Force_Field>  (361) 
OPLS3e

>  <r_lp_Energy>  (361) 
98.281

>  <b_lp_Chiralities_Consistent>  (361) 
1

>  <s_lp_Variant>  (361) 
110:0-1

>  <s_i_glide_gridfile>  (361) 
pfpi4k_grid

>  <i_i_glide_lignum>  (361) 
32

>  <i_i_glide_rotatable_bonds>  (361) 
0

>  <r_i_docking_score>  (361) 
-3.8366

>  <r_i_glide_ligand_efficiency>  (361) 
-0.239788

>  <r_i_glide_ligand_efficiency_sa>  (361) 
-0.604227

>  <r_i_glide_ligand_efficiency_ln>  (361) 
-1.01697

>  <r_i_glide_gscore>  (361) 
-3.8366

>  <r_i_glide_lipo>  (361) 
-0.359049

>  <r_i_glide_hbond>  (361) 
-0.0854267

>  <r_i_glide_metal>  (361) 
-0

>  <r_i_glide_rewards>  (361) 
-1.92074

>  <r_i_glide_evdw>  (361) 
-20.485

>  <r_i_glide_ecoul>  (361) 
-2.81651

>  <r_i_glide_erotb>  (361) 
0

>  <r_i_glide_esite>  (361) 
-0.0246613

>  <r_i_glide_emodel>  (361) 
-28.9335

>  <r_i_glide_energy>  (361) 
-23.3015

>  <r_i_glide_einternal>  (361) 
0

>  <r_i_glide_intrahb_reward>  (361) 
-0

>  <i_i_glide_confnum>  (361) 
1

>  <i_i_glide_posenum>  (361) 
6

>  <r_i_glide_eff_state_penalty>  (361) 
0

>  <ligand_id>  (361) 
110

>  <original_smiles>  (361) 
CC12CC(=O)C34C=CC(CCC1C3CO2)C4

>  <smiles>  (361) 
[H]C1=C([H])C23C(=O)C([H])([H])C4(C([H])([H])[H])OC([H])([H])C2([H])C4([H])C([H])([H])C([H])([H])C1([H])C3([H])[H]

$$$$
110:0:2
     RDKit          3D

 34 37  0  0  1  0  0  0  0  0999 V2000
    1.9915   -3.8756   -1.1219 C   0  0  0  0  0  0  0  0  0  0  0  0
    3.2739   -3.5430   -0.3602 C   0  0  1  0  0  0  0  0  0  0  0  0
    4.2008   -2.5278   -1.1692 C   0  0  0  0  0  0  0  0  0  0  0  0
    5.3679   -1.9518   -0.3201 C   0  0  0  0  0  0  0  0  0  0  0  0
    6.4847   -1.6458   -0.7346 O   0  0  0  0  0  0  0  0  0  0  0  0
    4.9156   -1.8514    1.1094 C   0  0  1  0  0  0  0  0  0  0  0  0
    3.9426   -0.6537    0.9155 C   0  0  0  0  0  0  0  0  0  0  0  0
    3.6633   -0.0160    2.0447 C   0  0  0  0  0  0  0  0  0  0  0  0
    4.2298   -0.8425    3.1278 C   0  0  1  0  0  0  0  0  0  0  0  0
    3.0650   -1.8993    3.3955 C   0  0  0  0  0  0  0  0  0  0  0  0
    2.2584   -2.5157    2.1404 C   0  0  0  0  0  0  0  0  0  0  0  0
    3.0810   -3.4855    1.2189 C   0  0  2  0  0  0  0  0  0  0  0  0
    4.5082   -3.3333    1.5178 C   0  0  1  0  0  0  0  0  0  0  0  0
    5.0651   -4.5390    0.7096 C   0  0  0  0  0  0  0  0  0  0  0  0
    4.1321   -4.6784   -0.3678 O   0  0  0  0  0  0  0  0  0  0  0  0
    5.5500   -1.3205    2.3909 C   0  0  0  0  0  0  0  0  0  0  0  0
    1.2895   -3.0578   -1.1323 H   0  0  0  0  0  0  0  0  0  0  0  0
    1.4868   -4.7332   -0.6789 H   0  0  0  0  0  0  0  0  0  0  0  0
    2.1934   -4.1206   -2.1626 H   0  0  0  0  0  0  0  0  0  0  0  0
    4.6215   -3.0313   -2.0395 H   0  0  0  0  0  0  0  0  0  0  0  0
    3.5992   -1.7102   -1.5585 H   0  0  0  0  0  0  0  0  0  0  0  0
    3.5869   -0.2775   -0.0288 H   0  0  0  0  0  0  0  0  0  0  0  0
    3.0459    0.8565    2.1831 H   0  0  0  0  0  0  0  0  0  0  0  0
    4.4633   -0.2440    4.0109 H   0  0  0  0  0  0  0  0  0  0  0  0
    3.4305   -2.6973    4.0467 H   0  0  0  0  0  0  0  0  0  0  0  0
    2.3199   -1.3798    3.9971 H   0  0  0  0  0  0  0  0  0  0  0  0
    1.4298   -3.0899    2.5507 H   0  0  0  0  0  0  0  0  0  0  0  0
    1.7479   -1.7556    1.5451 H   0  0  0  0  0  0  0  0  0  0  0  0
    2.7604   -4.4802    1.5408 H   0  0  0  0  0  0  0  0  0  0  0  0
    4.7317   -3.5776    2.5586 H   0  0  0  0  0  0  0  0  0  0  0  0
    6.0980   -4.4243    0.3675 H   0  0  0  0  0  0  0  0  0  0  0  0
    5.0260   -5.4527    1.3060 H   0  0  0  0  0  0  0  0  0  0  0  0
    6.1442   -2.0497    2.9441 H   0  0  0  0  0  0  0  0  0  0  0  0
    6.2080   -0.4809    2.1743 H   0  0  0  0  0  0  0  0  0  0  0  0
  2  1  1  6
  1 17  1  0
  1 18  1  0
  1 19  1  0
  2 12  1  0
  2 15  1  0
  2  3  1  0
  3  4  1  0
  3 20  1  0
  3 21  1  0
  4  5  2  0
  6  4  1  6
  6 13  1  0
  6 16  1  0
  6  7  1  0
  7  8  2  0
  7 22  1  0
  8  9  1  0
  8 23  1  0
  9 10  1  0
  9 16  1  0
  9 24  1  1
 10 11  1  0
 10 25  1  0
 10 26  1  0
 11 12  1  0
 11 27  1  0
 11 28  1  0
 12 13  1  0
 12 29  1  1
 13 14  1  0
 13 30  1  1
 14 15  1  0
 14 31  1  0
 14 32  1  0
 16 33  1  0
 16 34  1  0
M  END
>  <i_m_ct_stereo_status>  (362) 
1

>  <s_m_source_file>  (362) 
/var/tmp/pbs.5076255.sched01/tmparsu8qf0/123n9qi1oz7.sdf

>  <i_m_source_file_index>  (362) 
32

>  <i_lp_mmshare_version>  (362) 
48012

>  <i_f3d_flags>  (362) 
0

>  <s_epik_input>  (362) 
Tz1DMVtDSDJdW0NAQF0oW0NIM10pKE9bQ0gyXTIpW0NAQEhdKFtDQEBIXTJbQ0BAXTEzNClbQ0gyXVtDSDJdW0NAQEhdKFtDSDJdNClbQ0hdPVtDSF0z

>  <s_epik_cmdline>  (362) 
J2VwaWtfcHl0aG9uJywgJy1waHQnLCAnMi4wJywgJy1waCcsICc3LjAnLCAnLXRuJywgJzgnLCAnLW1hJywgJzIwMCcsICctaW1hZScsICc8aW5maWxlLm1hZT4nLCAnLW9tYWUnLCAnPG91dGZpbGUubWFlPic=

>  <r_lp_tautomer_probability>  (362) 
1

>  <r_epik_Ionization_Penalty>  (362) 
6.82235e-12

>  <r_epik_Ionization_Penalty_Charging>  (362) 
0

>  <r_epik_Ionization_Penalty_Neutral>  (362) 
6.82235e-12

>  <r_epik_State_Penalty>  (362) 
-0

>  <r_epik_Charging_Adjusted_Penalty>  (362) 
0

>  <i_epik_Tot_Q>  (362) 
0

>  <i_epik_Tot_abs_Q>  (362) 
0

>  <s_lp_Force_Field>  (362) 
OPLS3e

>  <r_lp_Energy>  (362) 
98.281

>  <b_lp_Chiralities_Consistent>  (362) 
1

>  <s_lp_Variant>  (362) 
110:0-1

>  <s_i_glide_gridfile>  (362) 
pfpi4k_grid

>  <i_i_glide_lignum>  (362) 
32

>  <i_i_glide_rotatable_bonds>  (362) 
0

>  <r_i_docking_score>  (362) 
-3.48861

>  <r_i_glide_ligand_efficiency>  (362) 
-0.218038

>  <r_i_glide_ligand_efficiency_sa>  (362) 
-0.549422

>  <r_i_glide_ligand_efficiency_ln>  (362) 
-0.924726

>  <r_i_glide_gscore>  (362) 
-3.48861

>  <r_i_glide_lipo>  (362) 
-0.331074

>  <r_i_glide_hbond>  (362) 
-0.139483

>  <r_i_glide_metal>  (362) 
-0

>  <r_i_glide_rewards>  (362) 
-1.92074

>  <r_i_glide_evdw>  (362) 
-15.0825

>  <r_i_glide_ecoul>  (362) 
-2.19736

>  <r_i_glide_erotb>  (362) 
0

>  <r_i_glide_esite>  (362) 
-0.0135867

>  <r_i_glide_emodel>  (362) 
-22.3902

>  <r_i_glide_energy>  (362) 
-17.2799

>  <r_i_glide_einternal>  (362) 
0

>  <r_i_glide_intrahb_reward>  (362) 
-0

>  <i_i_glide_confnum>  (362) 
1

>  <i_i_glide_posenum>  (362) 
2

>  <r_i_glide_eff_state_penalty>  (362) 
0

>  <ligand_id>  (362) 
110

>  <original_smiles>  (362) 
CC12CC(=O)C34C=CC(CCC1C3CO2)C4

>  <smiles>  (362) 
[H]C1=C([H])C23C(=O)C([H])([H])C4(C([H])([H])[H])OC([H])([H])C2([H])C4([H])C([H])([H])C([H])([H])C1([H])C3([H])[H]

$$$$
111:0:0
     RDKit          3D

 54 59  0  0  1  0  0  0  0  0999 V2000
    4.8803   -0.0899    4.0002 C   0  0  0  0  0  0  0  0  0  0  0  0
    4.3320   -0.9329    3.1044 C   0  0  0  0  0  0  0  0  0  0  0  0
    4.8607   -0.9660    1.6890 C   0  0  0  0  0  0  0  0  0  0  0  0
    5.4143    0.0313    1.2303 O   0  0  0  0  0  0  0  0  0  0  0  0
    4.5916   -2.2438    0.8945 C   0  0  1  0  0  0  0  0  0  0  0  0
    5.2333   -2.2360   -0.5344 C   0  0  1  0  0  0  0  0  0  0  0  0
    6.6068   -1.8660   -0.5717 O   0  0  0  0  0  0  0  0  0  0  0  0
    5.0830   -3.5442   -1.3587 C   0  0  0  0  0  0  0  0  0  0  0  0
    5.0200   -3.4505   -2.6986 C   0  0  0  0  0  0  0  0  0  0  0  0
    4.9879   -4.9676   -0.7178 C   0  0  1  0  0  0  0  0  0  0  0  0
    5.8374   -5.3629    0.5166 C   0  0  1  0  0  0  0  0  0  0  0  0
    6.1901   -4.2597    1.4317 C   0  0  0  0  0  0  0  0  0  0  0  0
    4.8741   -3.5108    1.7094 C   0  0  2  0  0  0  0  0  0  0  0  0
    3.4778   -4.0579    1.1528 C   0  0  2  0  0  0  0  0  0  0  0  0
    2.4260   -4.6378    1.8932 O   0  0  0  0  0  0  0  0  0  0  0  0
    3.8052   -5.1299    0.2136 C   0  0  2  0  0  0  0  0  0  0  0  0
    4.6110   -6.2000    1.0181 C   0  0  2  0  0  0  0  0  0  0  0  0
    4.3426   -6.5176    2.5780 C   0  0  0  0  0  0  0  0  0  0  0  0
    4.4763   -5.4993    3.8438 C   0  0  0  0  0  0  0  0  0  0  0  0
    3.3108   -4.5734    4.4901 C   0  0  1  0  0  0  0  0  0  0  0  0
    3.1553   -5.0192    5.9643 C   0  0  0  0  0  0  0  0  0  0  0  0
    3.4499   -2.9630    4.5382 C   0  0  0  0  0  0  0  0  0  0  0  0
    3.1054   -1.8076    3.4443 C   0  0  2  0  0  0  0  0  0  0  0  0
    2.2556   -2.0246    2.1371 C   0  0  1  0  0  0  0  0  0  0  0  0
    1.7294   -0.7831    1.7205 O   0  0  0  0  0  0  0  0  0  0  0  0
    3.0880   -2.6022    0.9717 C   0  0  1  0  0  0  0  0  0  0  0  0
    4.4971   -0.0256    5.0070 H   0  0  0  0  0  0  0  0  0  0  0  0
    5.7117    0.5561    3.7441 H   0  0  0  0  0  0  0  0  0  0  0  0
    4.7262   -1.4586   -1.1146 H   0  0  0  0  0  0  0  0  0  0  0  0
    7.0791   -2.4401   -0.0054 H   0  0  0  0  0  0  0  0  0  0  0  0
    5.0824   -2.4915   -3.1942 H   0  0  0  0  0  0  0  0  0  0  0  0
    4.9102   -4.3294   -3.3200 H   0  0  0  0  0  0  0  0  0  0  0  0
    4.9913   -5.7457   -1.4674 H   0  0  0  0  0  0  0  0  0  0  0  0
    6.6804   -6.0113    0.2398 H   0  0  0  0  0  0  0  0  0  0  0  0
    6.6552   -4.6635    2.3230 H   0  0  0  0  0  0  0  0  0  0  0  0
    6.9786   -3.6415    1.0153 H   0  0  0  0  0  0  0  0  0  0  0  0
    4.9095   -3.2799    2.7490 H   0  0  0  0  0  0  0  0  0  0  0  0
    2.8297   -5.2619    2.4700 H   0  0  0  0  0  0  0  0  0  0  0  0
    2.9317   -5.5503   -0.3119 H   0  0  0  0  0  0  0  0  0  0  0  0
    4.5754   -7.1312    0.4446 H   0  0  0  0  0  0  0  0  0  0  0  0
    3.3769   -7.0132    2.6750 H   0  0  0  0  0  0  0  0  0  0  0  0
    5.0373   -7.3221    2.8210 H   0  0  0  0  0  0  0  0  0  0  0  0
    4.6733   -6.2350    4.6243 H   0  0  0  0  0  0  0  0  0  0  0  0
    5.4268   -4.9871    3.9032 H   0  0  0  0  0  0  0  0  0  0  0  0
    2.3221   -4.8506    4.1432 H   0  0  0  0  0  0  0  0  0  0  0  0
    4.0477   -4.8042    6.5542 H   0  0  0  0  0  0  0  0  0  0  0  0
    2.9557   -6.0891    6.0418 H   0  0  0  0  0  0  0  0  0  0  0  0
    2.3130   -4.5236    6.4505 H   0  0  0  0  0  0  0  0  0  0  0  0
    2.8375   -2.6526    5.3853 H   0  0  0  0  0  0  0  0  0  0  0  0
    4.4588   -2.7635    4.9046 H   0  0  0  0  0  0  0  0  0  0  0  0
    2.4783   -1.1248    4.0210 H   0  0  0  0  0  0  0  0  0  0  0  0
    1.3640   -2.6017    2.3762 H   0  0  0  0  0  0  0  0  0  0  0  0
    1.4127   -0.8661    0.8052 H   0  0  0  0  0  0  0  0  0  0  0  0
    2.6068   -2.4801   -0.0153 H   0  0  0  0  0  0  0  0  0  0  0  0
  1  2  2  0
  1 27  1  0
  1 28  1  0
  2 23  1  0
  2  3  1  0
  3  4  2  0
  5  3  1  1
  5 13  1  0
  5 26  1  0
  5  6  1  0
  6  7  1  0
  6  8  1  0
  6 29  1  6
  7 30  1  0
  8  9  2  0
  8 10  1  0
  9 31  1  0
  9 32  1  0
 10 16  1  0
 10 11  1  0
 10 33  1  6
 11 17  1  0
 11 12  1  0
 11 34  1  6
 12 13  1  0
 12 35  1  0
 12 36  1  0
 13 14  1  0
 13 37  1  1
 14 26  1  0
 14 15  1  1
 14 16  1  0
 15 38  1  0
 16 17  1  0
 16 39  1  6
 17 18  1  0
 17 40  1  6
 18 19  1  0
 18 41  1  0
 18 42  1  0
 19 20  1  0
 19 43  1  0
 19 44  1  0
 20 21  1  0
 20 22  1  0
 20 45  1  6
 21 46  1  0
 21 47  1  0
 21 48  1  0
 22 23  1  0
 22 49  1  0
 22 50  1  0
 23 24  1  0
 23 51  1  1
 24 25  1  0
 24 26  1  0
 24 52  1  1
 25 53  1  0
 26 54  1  6
M  END
>  <i_m_ct_stereo_status>  (363) 
1

>  <s_m_source_file>  (363) 
/var/tmp/pbs.5076255.sched01/tmparsu8qf0/123n9qi1oz7.sdf

>  <i_m_source_file_index>  (363) 
33

>  <i_lp_mmshare_version>  (363) 
48012

>  <i_f3d_flags>  (363) 
0

>  <s_epik_input>  (363) 
Tz1DMUMoPVtDSDJdKVtDQEBIXShbQ0BASF0oW09IXSlbQ0BASF0yMylbQ0gyXVtDQEhdKFtDSDNdKVtDSDJdW0NIMl1bQ0BASF00W0NASF0oW0NIMl01KVtDQEhdKEMoPVtDSDJdKVtDQEBIXTZbT0hdKVtDQEBIXTRbQ0BdMyhbQ0BASF01W0NAXTEyNilbT0hd

>  <s_epik_cmdline>  (363) 
J2VwaWtfcHl0aG9uJywgJy1waHQnLCAnMi4wJywgJy1waCcsICc3LjAnLCAnLXRuJywgJzgnLCAnLW1hJywgJzIwMCcsICctaW1hZScsICc8aW5maWxlLm1hZT4nLCAnLW9tYWUnLCAnPG91dGZpbGUubWFlPic=

>  <r_lp_tautomer_probability>  (363) 
1

>  <r_epik_Ionization_Penalty>  (363) 
2.09714e-07

>  <r_epik_Ionization_Penalty_Charging>  (363) 
0

>  <r_epik_Ionization_Penalty_Neutral>  (363) 
2.09714e-07

>  <r_epik_State_Penalty>  (363) 
-0

>  <r_epik_Charging_Adjusted_Penalty>  (363) 
0

>  <i_epik_Tot_Q>  (363) 
0

>  <i_epik_Tot_abs_Q>  (363) 
0

>  <s_lp_Force_Field>  (363) 
OPLS3e

>  <r_lp_Energy>  (363) 
159.819

>  <b_lp_Chiralities_Consistent>  (363) 
1

>  <s_lp_Variant>  (363) 
111:0-1

>  <s_i_glide_gridfile>  (363) 
pfpi4k_grid

>  <i_i_glide_lignum>  (363) 
33

>  <i_i_glide_rotatable_bonds>  (363) 
3

>  <r_i_docking_score>  (363) 
-4.20387

>  <r_i_glide_ligand_efficiency>  (363) 
-0.161687

>  <r_i_glide_ligand_efficiency_sa>  (363) 
-0.478998

>  <r_i_glide_ligand_efficiency_ln>  (363) 
-0.987264

>  <r_i_glide_gscore>  (363) 
-4.20387

>  <r_i_glide_lipo>  (363) 
-0.655221

>  <r_i_glide_hbond>  (363) 
-0.384812

>  <r_i_glide_metal>  (363) 
-0

>  <r_i_glide_rewards>  (363) 
-1.11465

>  <r_i_glide_evdw>  (363) 
-22.7292

>  <r_i_glide_ecoul>  (363) 
-6.08488

>  <r_i_glide_erotb>  (363) 
0

>  <r_i_glide_esite>  (363) 
0

>  <r_i_glide_emodel>  (363) 
-37.2825

>  <r_i_glide_energy>  (363) 
-28.814

>  <r_i_glide_einternal>  (363) 
0.713161

>  <r_i_glide_intrahb_reward>  (363) 
-0

>  <i_i_glide_confnum>  (363) 
1

>  <i_i_glide_posenum>  (363) 
35

>  <r_i_glide_eff_state_penalty>  (363) 
0

>  <ligand_id>  (363) 
111

>  <original_smiles>  (363) 
C=C1C(=O)C23C(O)C(=C)C4C5CC2C2(O)C4C5CCC(C)CC1C(O)C23

>  <smiles>  (363) 
[H]OC1([H])C(=C([H])[H])C2([H])C3([H])C([H])([H])C4([H])C5(O[H])C2([H])C3([H])C([H])([H])C([H])([H])C([H])(C([H])([H])[H])C([H])([H])C2([H])C(=C([H])[H])C(=O)C14C5([H])C2([H])O[H]

$$$$
111:0:1
     RDKit          3D

 54 59  0  0  1  0  0  0  0  0999 V2000
    4.5351   -1.0297    5.3359 C   0  0  0  0  0  0  0  0  0  0  0  0
    4.0831   -1.5290    4.1733 C   0  0  0  0  0  0  0  0  0  0  0  0
    4.7603   -1.1325    2.8767 C   0  0  0  0  0  0  0  0  0  0  0  0
    5.4064   -0.0842    2.8252 O   0  0  0  0  0  0  0  0  0  0  0  0
    4.5541   -2.0781    1.6942 C   0  0  1  0  0  0  0  0  0  0  0  0
    5.3262   -1.6315    0.4104 C   0  0  1  0  0  0  0  0  0  0  0  0
    6.6861   -1.2798    0.6240 O   0  0  0  0  0  0  0  0  0  0  0  0
    5.2692   -2.6111   -0.7977 C   0  0  0  0  0  0  0  0  0  0  0  0
    5.3299   -2.0933   -2.0384 C   0  0  0  0  0  0  0  0  0  0  0  0
    5.1187   -4.1661   -0.6652 C   0  0  1  0  0  0  0  0  0  0  0  0
    5.8482   -4.9451    0.4611 C   0  0  1  0  0  0  0  0  0  0  0  0
    6.1056   -4.1914    1.7005 C   0  0  0  0  0  0  0  0  0  0  0  0
    4.7654   -3.5443    2.0839 C   0  0  2  0  0  0  0  0  0  0  0  0
    3.4357   -3.8522    1.2571 C   0  0  2  0  0  0  0  0  0  0  0  0
    2.3271   -4.6122    1.6847 O   0  0  0  0  0  0  0  0  0  0  0  0
    3.8536   -4.5762    0.0614 C   0  0  2  0  0  0  0  0  0  0  0  0
    4.5850   -5.8679    0.5514 C   0  0  2  0  0  0  0  0  0  0  0  0
    4.1705   -6.6593    1.8949 C   0  0  0  0  0  0  0  0  0  0  0  0
    4.1772   -6.0987    3.4263 C   0  0  0  0  0  0  0  0  0  0  0  0
    2.9510   -5.3968    4.2269 C   0  0  1  0  0  0  0  0  0  0  0  0
    2.6611   -6.2837    5.4604 C   0  0  0  0  0  0  0  0  0  0  0  0
    3.0758   -3.8885    4.7981 C   0  0  0  0  0  0  0  0  0  0  0  0
    2.8322   -2.4335    4.1019 C   0  0  2  0  0  0  0  0  0  0  0  0
    2.1159   -2.2035    2.7203 C   0  0  1  0  0  0  0  0  0  0  0  0
    1.6471   -0.8700    2.6392 O   0  0  0  0  0  0  0  0  0  0  0  0
    3.0531   -2.4069    1.5170 C   0  0  1  0  0  0  0  0  0  0  0  0
    4.0565   -1.2803    6.2715 H   0  0  0  0  0  0  0  0  0  0  0  0
    5.3877   -0.3595    5.3775 H   0  0  0  0  0  0  0  0  0  0  0  0
    4.8637   -0.7021    0.0610 H   0  0  0  0  0  0  0  0  0  0  0  0
    6.7095   -0.5398    1.2049 H   0  0  0  0  0  0  0  0  0  0  0  0
    5.4159   -1.0252   -2.1889 H   0  0  0  0  0  0  0  0  0  0  0  0
    5.2901   -2.7234   -2.9154 H   0  0  0  0  0  0  0  0  0  0  0  0
    5.1995   -4.6694   -1.6164 H   0  0  0  0  0  0  0  0  0  0  0  0
    6.7188   -5.5007    0.0800 H   0  0  0  0  0  0  0  0  0  0  0  0
    6.4931   -4.8635    2.4595 H   0  0  0  0  0  0  0  0  0  0  0  0
    6.9233   -3.4842    1.5726 H   0  0  0  0  0  0  0  0  0  0  0  0
    4.7009   -3.6601    3.1425 H   0  0  0  0  0  0  0  0  0  0  0  0
    2.6874   -5.3768    2.0929 H   0  0  0  0  0  0  0  0  0  0  0  0
    3.0329   -4.7880   -0.6487 H   0  0  0  0  0  0  0  0  0  0  0  0
    4.6132   -6.5616   -0.2944 H   0  0  0  0  0  0  0  0  0  0  0  0
    3.2031   -7.1375    1.7407 H   0  0  0  0  0  0  0  0  0  0  0  0
    4.8411   -7.5174    1.9345 H   0  0  0  0  0  0  0  0  0  0  0  0
    4.3020   -7.0493    3.9479 H   0  0  0  0  0  0  0  0  0  0  0  0
    5.1156   -5.6556    3.7310 H   0  0  0  0  0  0  0  0  0  0  0  0
    1.9997   -5.5267    3.7228 H   0  0  0  0  0  0  0  0  0  0  0  0
    3.4937   -6.2906    6.1663 H   0  0  0  0  0  0  0  0  0  0  0  0
    2.4604   -7.3176    5.1733 H   0  0  0  0  0  0  0  0  0  0  0  0
    1.7737   -5.9474    6.0006 H   0  0  0  0  0  0  0  0  0  0  0  0
    2.3833   -3.8492    5.6398 H   0  0  0  0  0  0  0  0  0  0  0  0
    4.0440   -3.8421    5.2986 H   0  0  0  0  0  0  0  0  0  0  0  0
    2.1498   -1.9537    4.8083 H   0  0  0  0  0  0  0  0  0  0  0  0
    1.2002   -2.7945    2.6814 H   0  0  0  0  0  0  0  0  0  0  0  0
    1.3531   -0.7088    1.7603 H   0  0  0  0  0  0  0  0  0  0  0  0
    2.6660   -1.9701    0.5749 H   0  0  0  0  0  0  0  0  0  0  0  0
  1  2  2  0
  1 27  1  0
  1 28  1  0
  2 23  1  0
  2  3  1  0
  3  4  2  0
  5  3  1  1
  5 13  1  0
  5 26  1  0
  5  6  1  0
  6  7  1  0
  6  8  1  0
  6 29  1  6
  7 30  1  0
  8  9  2  0
  8 10  1  0
  9 31  1  0
  9 32  1  0
 10 16  1  0
 10 11  1  0
 10 33  1  6
 11 17  1  0
 11 12  1  0
 11 34  1  6
 12 13  1  0
 12 35  1  0
 12 36  1  0
 13 14  1  0
 13 37  1  1
 14 26  1  0
 14 15  1  1
 14 16  1  0
 15 38  1  0
 16 17  1  0
 16 39  1  6
 17 18  1  0
 17 40  1  6
 18 19  1  0
 18 41  1  0
 18 42  1  0
 19 20  1  0
 19 43  1  0
 19 44  1  0
 20 21  1  0
 20 22  1  0
 20 45  1  6
 21 46  1  0
 21 47  1  0
 21 48  1  0
 22 23  1  0
 22 49  1  0
 22 50  1  0
 23 24  1  0
 23 51  1  1
 24 25  1  0
 24 26  1  0
 24 52  1  6
 25 53  1  0
 26 54  1  6
M  END
>  <i_m_ct_stereo_status>  (364) 
1

>  <s_m_source_file>  (364) 
/var/tmp/pbs.5076255.sched01/tmparsu8qf0/123n9qi1oz7.sdf

>  <i_m_source_file_index>  (364) 
33

>  <i_lp_mmshare_version>  (364) 
48012

>  <i_f3d_flags>  (364) 
0

>  <s_epik_input>  (364) 
Tz1DMUMoPVtDSDJdKVtDQEBIXShbQ0BASF0oW09IXSlbQ0BASF0yMylbQ0gyXVtDQEhdKFtDSDNdKVtDSDJdW0NIMl1bQ0BASF00W0NASF0oW0NIMl01KVtDQEhdKEMoPVtDSDJdKVtDQEBIXTZbT0hdKVtDQEBIXTRbQ0BdMyhbQ0BASF01W0NAXTEyNilbT0hd

>  <s_epik_cmdline>  (364) 
J2VwaWtfcHl0aG9uJywgJy1waHQnLCAnMi4wJywgJy1waCcsICc3LjAnLCAnLXRuJywgJzgnLCAnLW1hJywgJzIwMCcsICctaW1hZScsICc8aW5maWxlLm1hZT4nLCAnLW9tYWUnLCAnPG91dGZpbGUubWFlPic=

>  <r_lp_tautomer_probability>  (364) 
1

>  <r_epik_Ionization_Penalty>  (364) 
2.09714e-07

>  <r_epik_Ionization_Penalty_Charging>  (364) 
0

>  <r_epik_Ionization_Penalty_Neutral>  (364) 
2.09714e-07

>  <r_epik_State_Penalty>  (364) 
-0

>  <r_epik_Charging_Adjusted_Penalty>  (364) 
0

>  <i_epik_Tot_Q>  (364) 
0

>  <i_epik_Tot_abs_Q>  (364) 
0

>  <s_lp_Force_Field>  (364) 
OPLS3e

>  <r_lp_Energy>  (364) 
159.819

>  <b_lp_Chiralities_Consistent>  (364) 
1

>  <s_lp_Variant>  (364) 
111:0-1

>  <s_i_glide_gridfile>  (364) 
pfpi4k_grid

>  <i_i_glide_lignum>  (364) 
33

>  <i_i_glide_rotatable_bonds>  (364) 
3

>  <r_i_docking_score>  (364) 
-3.97352

>  <r_i_glide_ligand_efficiency>  (364) 
-0.152828

>  <r_i_glide_ligand_efficiency_sa>  (364) 
-0.452751

>  <r_i_glide_ligand_efficiency_ln>  (364) 
-0.933167

>  <r_i_glide_gscore>  (364) 
-3.97352

>  <r_i_glide_lipo>  (364) 
-0.507594

>  <r_i_glide_hbond>  (364) 
-0.137412

>  <r_i_glide_metal>  (364) 
-0

>  <r_i_glide_rewards>  (364) 
-1.58004

>  <r_i_glide_evdw>  (364) 
-23.6819

>  <r_i_glide_ecoul>  (364) 
-3.76247

>  <r_i_glide_erotb>  (364) 
0

>  <r_i_glide_esite>  (364) 
0

>  <r_i_glide_emodel>  (364) 
-40.2503

>  <r_i_glide_energy>  (364) 
-27.4444

>  <r_i_glide_einternal>  (364) 
1.13788

>  <r_i_glide_intrahb_reward>  (364) 
-0.5

>  <i_i_glide_confnum>  (364) 
1

>  <i_i_glide_posenum>  (364) 
1

>  <r_i_glide_eff_state_penalty>  (364) 
0

>  <ligand_id>  (364) 
111

>  <original_smiles>  (364) 
C=C1C(=O)C23C(O)C(=C)C4C5CC2C2(O)C4C5CCC(C)CC1C(O)C23

>  <smiles>  (364) 
[H]OC1([H])C(=C([H])[H])C2([H])C3([H])C([H])([H])C4([H])C5(O[H])C2([H])C3([H])C([H])([H])C([H])([H])C([H])(C([H])([H])[H])C([H])([H])C2([H])C(=C([H])[H])C(=O)C14C5([H])C2([H])O[H]

$$$$
111:0:2
     RDKit          3D

 54 59  0  0  1  0  0  0  0  0999 V2000
    1.2062   -5.9048    5.1122 C   0  0  0  0  0  0  0  0  0  0  0  0
    1.6895   -5.8263    3.8571 C   0  0  0  0  0  0  0  0  0  0  0  0
    1.8393   -4.4725    3.2140 C   0  0  0  0  0  0  0  0  0  0  0  0
    1.1343   -3.5369    3.5948 O   0  0  0  0  0  0  0  0  0  0  0  0
    2.8472   -4.3937    2.0489 C   0  0  1  0  0  0  0  0  0  0  0  0
    3.0183   -2.9534    1.4483 C   0  0  1  0  0  0  0  0  0  0  0  0
    3.2449   -1.9578    2.4319 O   0  0  0  0  0  0  0  0  0  0  0  0
    4.0986   -2.7768    0.3471 C   0  0  0  0  0  0  0  0  0  0  0  0
    3.8975   -1.8328   -0.5899 C   0  0  0  0  0  0  0  0  0  0  0  0
    5.3856   -3.6463    0.2495 C   0  0  1  0  0  0  0  0  0  0  0  0
    6.1859   -4.0757    1.5073 C   0  0  1  0  0  0  0  0  0  0  0  0
    5.3717   -4.2272    2.7466 C   0  0  0  0  0  0  0  0  0  0  0  0
    4.1631   -5.1059    2.3591 C   0  0  2  0  0  0  0  0  0  0  0  0
    4.0541   -5.7610    0.9101 C   0  0  2  0  0  0  0  0  0  0  0  0
    4.1992   -7.1073    0.5616 O   0  0  0  0  0  0  0  0  0  0  0  0
    5.1158   -5.1299    0.0816 C   0  0  2  0  0  0  0  0  0  0  0  0
    6.4636   -5.4367    0.8068 C   0  0  2  0  0  0  0  0  0  0  0  0
    6.7405   -6.8144    1.6195 C   0  0  0  0  0  0  0  0  0  0  0  0
    5.9523   -7.3874    2.9190 C   0  0  0  0  0  0  0  0  0  0  0  0
    4.6697   -8.3833    2.9378 C   0  0  1  0  0  0  0  0  0  0  0  0
    5.1049   -9.6517    3.7127 C   0  0  0  0  0  0  0  0  0  0  0  0
    3.2656   -7.9308    3.6019 C   0  0  0  0  0  0  0  0  0  0  0  0
    2.0035   -7.0862    3.0168 C   0  0  2  0  0  0  0  0  0  0  0  0
    1.7605   -6.7567    1.5014 C   0  0  1  0  0  0  0  0  0  0  0  0
    0.3832   -6.4959    1.2694 O   0  0  0  0  0  0  0  0  0  0  0  0
    2.5608   -5.5055    1.0100 C   0  0  1  0  0  0  0  0  0  0  0  0
    1.0561   -6.8643    5.5892 H   0  0  0  0  0  0  0  0  0  0  0  0
    0.9478   -5.0216    5.6832 H   0  0  0  0  0  0  0  0  0  0  0  0
    2.0648   -2.6732    0.9962 H   0  0  0  0  0  0  0  0  0  0  0  0
    3.0866   -1.1143    2.0341 H   0  0  0  0  0  0  0  0  0  0  0  0
    3.0177   -1.2035   -0.5724 H   0  0  0  0  0  0  0  0  0  0  0  0
    4.6025   -1.6684   -1.3886 H   0  0  0  0  0  0  0  0  0  0  0  0
    6.0571   -3.2891   -0.5342 H   0  0  0  0  0  0  0  0  0  0  0  0
    7.0933   -3.4863    1.6414 H   0  0  0  0  0  0  0  0  0  0  0  0
    5.9870   -4.6610    3.5279 H   0  0  0  0  0  0  0  0  0  0  0  0
    5.1020   -3.2624    3.1643 H   0  0  0  0  0  0  0  0  0  0  0  0
    4.0458   -5.7712    3.1797 H   0  0  0  0  0  0  0  0  0  0  0  0
    4.8816   -7.4590    1.1159 H   0  0  0  0  0  0  0  0  0  0  0  0
    5.0922   -5.4365   -0.9679 H   0  0  0  0  0  0  0  0  0  0  0  0
    7.2661   -5.2856    0.0817 H   0  0  0  0  0  0  0  0  0  0  0  0
    6.7968   -7.6338    0.9021 H   0  0  0  0  0  0  0  0  0  0  0  0
    7.7763   -6.7348    1.9524 H   0  0  0  0  0  0  0  0  0  0  0  0
    6.7510   -7.9997    3.3379 H   0  0  0  0  0  0  0  0  0  0  0  0
    5.8805   -6.6826    3.7380 H   0  0  0  0  0  0  0  0  0  0  0  0
    4.4913   -8.8542    1.9762 H   0  0  0  0  0  0  0  0  0  0  0  0
    5.3144   -9.4394    4.7625 H   0  0  0  0  0  0  0  0  0  0  0  0
    5.9991  -10.1008    3.2790 H   0  0  0  0  0  0  0  0  0  0  0  0
    4.3386  -10.4282    3.6812 H   0  0  0  0  0  0  0  0  0  0  0  0
    2.7862   -8.8620    3.9063 H   0  0  0  0  0  0  0  0  0  0  0  0
    3.5253   -7.4874    4.5648 H   0  0  0  0  0  0  0  0  0  0  0  0
    1.1626   -7.7425    3.2519 H   0  0  0  0  0  0  0  0  0  0  0  0
    1.9358   -7.6458    0.8988 H   0  0  0  0  0  0  0  0  0  0  0  0
   -0.0665   -7.3310    1.2705 H   0  0  0  0  0  0  0  0  0  0  0  0
    2.1916   -5.1036    0.0656 H   0  0  0  0  0  0  0  0  0  0  0  0
  1  2  2  0
  1 27  1  0
  1 28  1  0
  2 23  1  0
  2  3  1  0
  3  4  2  0
  5  3  1  1
  5 13  1  0
  5 26  1  0
  5  6  1  0
  6  7  1  0
  6  8  1  0
  6 29  1  6
  7 30  1  0
  8  9  2  0
  8 10  1  0
  9 31  1  0
  9 32  1  0
 10 16  1  0
 10 11  1  0
 10 33  1  6
 11 17  1  0
 11 12  1  0
 11 34  1  1
 12 13  1  0
 12 35  1  0
 12 36  1  0
 13 14  1  0
 13 37  1  1
 14 26  1  0
 14 15  1  1
 14 16  1  0
 15 38  1  0
 16 17  1  0
 16 39  1  6
 17 18  1  0
 17 40  1  6
 18 19  1  0
 18 41  1  0
 18 42  1  0
 19 20  1  0
 19 43  1  0
 19 44  1  0
 20 21  1  0
 20 22  1  0
 20 45  1  6
 21 46  1  0
 21 47  1  0
 21 48  1  0
 22 23  1  0
 22 49  1  0
 22 50  1  0
 23 24  1  0
 23 51  1  1
 24 25  1  0
 24 26  1  0
 24 52  1  6
 25 53  1  0
 26 54  1  6
M  END
>  <i_m_ct_stereo_status>  (365) 
1

>  <s_m_source_file>  (365) 
/var/tmp/pbs.5076255.sched01/tmparsu8qf0/123n9qi1oz7.sdf

>  <i_m_source_file_index>  (365) 
33

>  <i_lp_mmshare_version>  (365) 
48012

>  <i_f3d_flags>  (365) 
0

>  <s_epik_input>  (365) 
Tz1DMUMoPVtDSDJdKVtDQEBIXShbQ0BASF0oW09IXSlbQ0BASF0yMylbQ0gyXVtDQEhdKFtDSDNdKVtDSDJdW0NIMl1bQ0BASF00W0NASF0oW0NIMl01KVtDQEhdKEMoPVtDSDJdKVtDQEBIXTZbT0hdKVtDQEBIXTRbQ0BdMyhbQ0BASF01W0NAXTEyNilbT0hd

>  <s_epik_cmdline>  (365) 
J2VwaWtfcHl0aG9uJywgJy1waHQnLCAnMi4wJywgJy1waCcsICc3LjAnLCAnLXRuJywgJzgnLCAnLW1hJywgJzIwMCcsICctaW1hZScsICc8aW5maWxlLm1hZT4nLCAnLW9tYWUnLCAnPG91dGZpbGUubWFlPic=

>  <r_lp_tautomer_probability>  (365) 
1

>  <r_epik_Ionization_Penalty>  (365) 
2.09714e-07

>  <r_epik_Ionization_Penalty_Charging>  (365) 
0

>  <r_epik_Ionization_Penalty_Neutral>  (365) 
2.09714e-07

>  <r_epik_State_Penalty>  (365) 
-0

>  <r_epik_Charging_Adjusted_Penalty>  (365) 
0

>  <i_epik_Tot_Q>  (365) 
0

>  <i_epik_Tot_abs_Q>  (365) 
0

>  <s_lp_Force_Field>  (365) 
OPLS3e

>  <r_lp_Energy>  (365) 
159.819

>  <b_lp_Chiralities_Consistent>  (365) 
1

>  <s_lp_Variant>  (365) 
111:0-1

>  <s_i_glide_gridfile>  (365) 
pfpi4k_grid

>  <i_i_glide_lignum>  (365) 
33

>  <i_i_glide_rotatable_bonds>  (365) 
3

>  <r_i_docking_score>  (365) 
-3.27959

>  <r_i_glide_ligand_efficiency>  (365) 
-0.126138

>  <r_i_glide_ligand_efficiency_sa>  (365) 
-0.373683

>  <r_i_glide_ligand_efficiency_ln>  (365) 
-0.770201

>  <r_i_glide_gscore>  (365) 
-3.27959

>  <r_i_glide_lipo>  (365) 
-0.444449

>  <r_i_glide_hbond>  (365) 
-0.16

>  <r_i_glide_metal>  (365) 
-0

>  <r_i_glide_rewards>  (365) 
-0.978714

>  <r_i_glide_evdw>  (365) 
-23.6111

>  <r_i_glide_ecoul>  (365) 
-3.40106

>  <r_i_glide_erotb>  (365) 
0

>  <r_i_glide_esite>  (365) 
-0.00571299

>  <r_i_glide_emodel>  (365) 
-33.3398

>  <r_i_glide_energy>  (365) 
-27.0121

>  <r_i_glide_einternal>  (365) 
0.999449

>  <r_i_glide_intrahb_reward>  (365) 
-0

>  <i_i_glide_confnum>  (365) 
2

>  <i_i_glide_posenum>  (365) 
12

>  <r_i_glide_eff_state_penalty>  (365) 
0

>  <ligand_id>  (365) 
111

>  <original_smiles>  (365) 
C=C1C(=O)C23C(O)C(=C)C4C5CC2C2(O)C4C5CCC(C)CC1C(O)C23

>  <smiles>  (365) 
[H]OC1([H])C(=C([H])[H])C2([H])C3([H])C([H])([H])C4([H])C5(O[H])C2([H])C3([H])C([H])([H])C([H])([H])C([H])(C([H])([H])[H])C([H])([H])C2([H])C(=C([H])[H])C(=O)C14C5([H])C2([H])O[H]

$$$$
113:0:0
     RDKit          3D

 36 39  0  0  1  0  0  0  0  0999 V2000
    5.2122   -0.8421    1.4694 C   0  0  0  0  0  0  0  0  0  0  0  0
    5.3006   -1.1317   -0.0376 C   0  0  0  0  0  0  0  0  0  0  0  0
    5.8330   -2.5266   -0.4342 C   0  0  1  0  0  0  0  0  0  0  0  0
    7.2472   -2.6875    0.1047 C   0  0  0  0  0  0  0  0  0  0  0  0
    8.0608   -1.7662    0.0730 O   0  0  0  0  0  0  0  0  0  0  0  0
    7.6656   -4.0160    0.6227 C   0  0  0  0  0  0  0  0  0  0  0  0
    9.1433   -4.1867    0.9221 C   0  0  0  0  0  0  0  0  0  0  0  0
    6.8011   -5.0265    0.8272 C   0  0  0  0  0  0  0  0  0  0  0  0
    5.3596   -4.9327    0.5762 C   0  0  0  0  0  0  0  0  0  0  0  0
    4.6334   -5.8215    1.0119 O   0  0  0  0  0  0  0  0  0  0  0  0
    4.8579   -3.7531   -0.2190 C   0  0  1  0  0  0  0  0  0  0  0  0
    3.5843   -3.4233    0.2981 O   0  0  0  0  0  0  0  0  0  0  0  0
    4.8127   -4.0198   -1.7219 C   0  0  1  0  0  0  0  0  0  0  0  0
    3.8812   -3.3552   -2.6771 C   0  0  0  0  0  0  0  0  0  0  0  0
    2.5883   -3.4393   -3.1778 C   0  0  0  0  0  0  0  0  0  0  0  0
    2.2075   -2.3043   -3.9143 C   0  0  0  0  0  0  0  0  0  0  0  0
    3.0376   -1.1517   -4.1089 C   0  0  0  0  0  0  0  0  0  0  0  0
    4.3334   -1.0932   -3.5539 C   0  0  0  0  0  0  0  0  0  0  0  0
    4.7370   -2.2300   -2.8851 C   0  0  0  0  0  0  0  0  0  0  0  0
    5.7822   -2.7695   -1.9480 C   0  0  1  0  0  0  0  0  0  0  0  0
    4.7457    0.1315    1.6250 H   0  0  0  0  0  0  0  0  0  0  0  0
    6.1982   -0.8149    1.9315 H   0  0  0  0  0  0  0  0  0  0  0  0
    4.6028   -1.5893    1.9763 H   0  0  0  0  0  0  0  0  0  0  0  0
    4.2989   -0.9973   -0.4514 H   0  0  0  0  0  0  0  0  0  0  0  0
    5.8841   -0.3460   -0.5217 H   0  0  0  0  0  0  0  0  0  0  0  0
    9.7111   -4.0089    0.0099 H   0  0  0  0  0  0  0  0  0  0  0  0
    9.3593   -5.1885    1.3049 H   0  0  0  0  0  0  0  0  0  0  0  0
    9.4712   -3.4728    1.6768 H   0  0  0  0  0  0  0  0  0  0  0  0
    7.1552   -5.9765    1.2121 H   0  0  0  0  0  0  0  0  0  0  0  0
    3.2355   -2.7743   -0.2900 H   0  0  0  0  0  0  0  0  0  0  0  0
    5.2323   -4.9502   -2.1002 H   0  0  0  0  0  0  0  0  0  0  0  0
    1.9063   -4.2514   -2.9613 H   0  0  0  0  0  0  0  0  0  0  0  0
    1.2109   -2.3058   -4.3326 H   0  0  0  0  0  0  0  0  0  0  0  0
    2.6434   -0.3136   -4.6570 H   0  0  0  0  0  0  0  0  0  0  0  0
    4.9680   -0.2391   -3.6128 H   0  0  0  0  0  0  0  0  0  0  0  0
    6.7144   -3.0261   -2.4510 H   0  0  0  0  0  0  0  0  0  0  0  0
  1  2  1  0
  1 21  1  0
  1 22  1  0
  1 23  1  0
  3  2  1  6
  2 24  1  0
  2 25  1  0
  3 11  1  0
  3 20  1  0
  3  4  1  0
  4  5  2  0
  4  6  1  0
  6  7  1  0
  6  8  2  0
  7 26  1  0
  7 27  1  0
  7 28  1  0
  8  9  1  0
  8 29  1  0
  9 10  2  0
  9 11  1  0
 11 12  1  1
 11 13  1  0
 12 30  1  0
 13 20  1  0
 13 14  1  0
 13 31  1  1
 14 19  2  0
 14 15  1  0
 15 16  2  0
 15 32  1  0
 16 17  1  0
 16 33  1  0
 17 18  2  0
 17 34  1  0
 18 19  1  0
 18 35  1  0
 19 20  1  0
 20 36  1  6
M  END
>  <i_m_ct_stereo_status>  (366) 
1

>  <s_m_source_file>  (366) 
/var/tmp/pbs.5076255.sched01/tmparsu8qf0/123n9qi1oz7.sdf

>  <i_m_source_file_index>  (366) 
35

>  <i_lp_mmshare_version>  (366) 
48012

>  <i_f3d_flags>  (366) 
0

>  <s_epik_input>  (366) 
Tz1DMUMoW0NIM10pPVtDSF1DKD1PKVtDQEBdKFtPSF0pKFtDQEBdMTJbQ0gyXVtDSDNdKVtDQEhdM2M0YyhbQ0BIXTIzKVtjSF1bY0hdW2NIXVtjSF00

>  <s_epik_cmdline>  (366) 
J2VwaWtfcHl0aG9uJywgJy1waHQnLCAnMi4wJywgJy1waCcsICc3LjAnLCAnLXRuJywgJzgnLCAnLW1hJywgJzIwMCcsICctaW1hZScsICc8aW5maWxlLm1hZT4nLCAnLW9tYWUnLCAnPG91dGZpbGUubWFlPic=

>  <r_lp_tautomer_probability>  (366) 
1

>  <r_epik_Ionization_Penalty>  (366) 
0.000128498

>  <r_epik_Ionization_Penalty_Charging>  (366) 
0

>  <r_epik_Ionization_Penalty_Neutral>  (366) 
0.000128498

>  <r_epik_State_Penalty>  (366) 
-0

>  <r_epik_Charging_Adjusted_Penalty>  (366) 
0

>  <i_epik_Tot_Q>  (366) 
0

>  <i_epik_Tot_abs_Q>  (366) 
0

>  <s_lp_Force_Field>  (366) 
OPLS3e

>  <r_lp_Energy>  (366) 
49.561

>  <b_lp_Chiralities_Consistent>  (366) 
1

>  <s_lp_Variant>  (366) 
113:0-1

>  <s_i_glide_gridfile>  (366) 
pfpi4k_grid

>  <i_i_glide_lignum>  (366) 
35

>  <i_i_glide_rotatable_bonds>  (366) 
2

>  <r_i_docking_score>  (366) 
-4.41074

>  <r_i_glide_ligand_efficiency>  (366) 
-0.220537

>  <r_i_glide_ligand_efficiency_sa>  (366) 
-0.598629

>  <r_i_glide_ligand_efficiency_ln>  (366) 
-1.10386

>  <r_i_glide_gscore>  (366) 
-4.41074

>  <r_i_glide_lipo>  (366) 
-1.17873

>  <r_i_glide_hbond>  (366) 
-0.0841312

>  <r_i_glide_metal>  (366) 
-0

>  <r_i_glide_rewards>  (366) 
-1.81774

>  <r_i_glide_evdw>  (366) 
-19.5282

>  <r_i_glide_ecoul>  (366) 
-2.35821

>  <r_i_glide_erotb>  (366) 
0

>  <r_i_glide_esite>  (366) 
0

>  <r_i_glide_emodel>  (366) 
-27.6436

>  <r_i_glide_energy>  (366) 
-21.8864

>  <r_i_glide_einternal>  (366) 
0.0119527

>  <r_i_glide_intrahb_reward>  (366) 
-0

>  <i_i_glide_confnum>  (366) 
2

>  <i_i_glide_posenum>  (366) 
10

>  <r_i_glide_eff_state_penalty>  (366) 
0

>  <ligand_id>  (366) 
113

>  <original_smiles>  (366) 
CCC12C(=O)C(C)=CC(=O)C1(O)C1c3ccccc3C12

>  <smiles>  (366) 
[H]OC12C(=O)C([H])=C(C([H])([H])[H])C(=O)C1(C([H])([H])C([H])([H])[H])C1([H])c3c([H])c([H])c([H])c([H])c3C21[H]

$$$$
113:0:1
     RDKit          3D

 36 39  0  0  1  0  0  0  0  0999 V2000
    5.0553   -0.8939    1.5851 C   0  0  0  0  0  0  0  0  0  0  0  0
    5.1950   -1.0724    0.0664 C   0  0  0  0  0  0  0  0  0  0  0  0
    5.8446   -2.3883   -0.4105 C   0  0  1  0  0  0  0  0  0  0  0  0
    7.2746   -2.4650    0.1345 C   0  0  0  0  0  0  0  0  0  0  0  0
    7.9947   -1.4686    0.1960 O   0  0  0  0  0  0  0  0  0  0  0  0
    7.7929   -3.7860    0.5806 C   0  0  0  0  0  0  0  0  0  0  0  0
    9.2751   -3.8493    0.8725 C   0  0  0  0  0  0  0  0  0  0  0  0
    7.0120   -4.8752    0.7064 C   0  0  0  0  0  0  0  0  0  0  0  0
    5.5683   -4.8832    0.4480 C   0  0  0  0  0  0  0  0  0  0  0  0
    4.9149   -5.8471    0.8387 O   0  0  0  0  0  0  0  0  0  0  0  0
    4.9699   -3.6958   -0.2944 C   0  0  1  0  0  0  0  0  0  0  0  0
    3.6573   -3.5238    0.1969 O   0  0  0  0  0  0  0  0  0  0  0  0
    4.9795   -3.8641   -1.8158 C   0  0  1  0  0  0  0  0  0  0  0  0
    3.9870   -3.2190   -2.7315 C   0  0  0  0  0  0  0  0  0  0  0  0
    2.7097   -3.3923   -3.2463 C   0  0  0  0  0  0  0  0  0  0  0  0
    2.2283   -2.2567   -3.9206 C   0  0  0  0  0  0  0  0  0  0  0  0
    2.9771   -1.0381   -4.0437 C   0  0  0  0  0  0  0  0  0  0  0  0
    4.2447   -0.8711   -3.4508 C   0  0  0  0  0  0  0  0  0  0  0  0
    4.7411   -2.0220   -2.8447 C   0  0  0  0  0  0  0  0  0  0  0  0
    5.8333   -2.5358   -1.9442 C   0  0  1  0  0  0  0  0  0  0  0  0
    4.5135    0.0304    1.7913 H   0  0  0  0  0  0  0  0  0  0  0  0
    6.0277   -0.8254    2.0753 H   0  0  0  0  0  0  0  0  0  0  0  0
    4.4941   -1.7146    2.0309 H   0  0  0  0  0  0  0  0  0  0  0  0
    4.2015   -0.9880   -0.3723 H   0  0  0  0  0  0  0  0  0  0  0  0
    5.7480   -0.2304   -0.3457 H   0  0  0  0  0  0  0  0  0  0  0  0
    9.8009   -3.5585   -0.0391 H   0  0  0  0  0  0  0  0  0  0  0  0
    9.5646   -4.8530    1.1915 H   0  0  0  0  0  0  0  0  0  0  0  0
    9.5805   -3.1713    1.6674 H   0  0  0  0  0  0  0  0  0  0  0  0
    7.4527   -5.8117    1.0321 H   0  0  0  0  0  0  0  0  0  0  0  0
    3.7474   -3.2086    1.0804 H   0  0  0  0  0  0  0  0  0  0  0  0
    5.4296   -4.7516   -2.2371 H   0  0  0  0  0  0  0  0  0  0  0  0
    2.0847   -4.2589   -3.0829 H   0  0  0  0  0  0  0  0  0  0  0  0
    1.2341   -2.3048   -4.3220 H   0  0  0  0  0  0  0  0  0  0  0  0
    2.5259   -0.1902   -4.5339 H   0  0  0  0  0  0  0  0  0  0  0  0
    4.7219    0.0907   -3.4208 H   0  0  0  0  0  0  0  0  0  0  0  0
    6.7898   -2.6957   -2.4420 H   0  0  0  0  0  0  0  0  0  0  0  0
  1  2  1  0
  1 21  1  0
  1 22  1  0
  1 23  1  0
  3  2  1  6
  2 24  1  0
  2 25  1  0
  3 11  1  0
  3 20  1  0
  3  4  1  0
  4  5  2  0
  4  6  1  0
  6  7  1  0
  6  8  2  0
  7 26  1  0
  7 27  1  0
  7 28  1  0
  8  9  1  0
  8 29  1  0
  9 10  2  0
  9 11  1  0
 11 12  1  1
 11 13  1  0
 12 30  1  0
 13 20  1  0
 13 14  1  0
 13 31  1  1
 14 19  2  0
 14 15  1  0
 15 16  2  0
 15 32  1  0
 16 17  1  0
 16 33  1  0
 17 18  2  0
 17 34  1  0
 18 19  1  0
 18 35  1  0
 19 20  1  0
 20 36  1  6
M  END
>  <i_m_ct_stereo_status>  (367) 
1

>  <s_m_source_file>  (367) 
/var/tmp/pbs.5076255.sched01/tmparsu8qf0/123n9qi1oz7.sdf

>  <i_m_source_file_index>  (367) 
35

>  <i_lp_mmshare_version>  (367) 
48012

>  <i_f3d_flags>  (367) 
0

>  <s_epik_input>  (367) 
Tz1DMUMoW0NIM10pPVtDSF1DKD1PKVtDQEBdKFtPSF0pKFtDQEBdMTJbQ0gyXVtDSDNdKVtDQEhdM2M0YyhbQ0BIXTIzKVtjSF1bY0hdW2NIXVtjSF00

>  <s_epik_cmdline>  (367) 
J2VwaWtfcHl0aG9uJywgJy1waHQnLCAnMi4wJywgJy1waCcsICc3LjAnLCAnLXRuJywgJzgnLCAnLW1hJywgJzIwMCcsICctaW1hZScsICc8aW5maWxlLm1hZT4nLCAnLW9tYWUnLCAnPG91dGZpbGUubWFlPic=

>  <r_lp_tautomer_probability>  (367) 
1

>  <r_epik_Ionization_Penalty>  (367) 
0.000128498

>  <r_epik_Ionization_Penalty_Charging>  (367) 
0

>  <r_epik_Ionization_Penalty_Neutral>  (367) 
0.000128498

>  <r_epik_State_Penalty>  (367) 
-0

>  <r_epik_Charging_Adjusted_Penalty>  (367) 
0

>  <i_epik_Tot_Q>  (367) 
0

>  <i_epik_Tot_abs_Q>  (367) 
0

>  <s_lp_Force_Field>  (367) 
OPLS3e

>  <r_lp_Energy>  (367) 
49.561

>  <b_lp_Chiralities_Consistent>  (367) 
1

>  <s_lp_Variant>  (367) 
113:0-1

>  <s_i_glide_gridfile>  (367) 
pfpi4k_grid

>  <i_i_glide_lignum>  (367) 
35

>  <i_i_glide_rotatable_bonds>  (367) 
2

>  <r_i_docking_score>  (367) 
-4.30083

>  <r_i_glide_ligand_efficiency>  (367) 
-0.215042

>  <r_i_glide_ligand_efficiency_sa>  (367) 
-0.583713

>  <r_i_glide_ligand_efficiency_ln>  (367) 
-1.07636

>  <r_i_glide_gscore>  (367) 
-4.30083

>  <r_i_glide_lipo>  (367) 
-1.18184

>  <r_i_glide_hbond>  (367) 
-0.0751293

>  <r_i_glide_metal>  (367) 
-0

>  <r_i_glide_rewards>  (367) 
-1.81791

>  <r_i_glide_evdw>  (367) 
-20.0438

>  <r_i_glide_ecoul>  (367) 
-1.49172

>  <r_i_glide_erotb>  (367) 
0

>  <r_i_glide_esite>  (367) 
0

>  <r_i_glide_emodel>  (367) 
-25.807

>  <r_i_glide_energy>  (367) 
-21.5355

>  <r_i_glide_einternal>  (367) 
2.65177

>  <r_i_glide_intrahb_reward>  (367) 
-0

>  <i_i_glide_confnum>  (367) 
1

>  <i_i_glide_posenum>  (367) 
6

>  <r_i_glide_eff_state_penalty>  (367) 
0

>  <ligand_id>  (367) 
113

>  <original_smiles>  (367) 
CCC12C(=O)C(C)=CC(=O)C1(O)C1c3ccccc3C12

>  <smiles>  (367) 
[H]OC12C(=O)C([H])=C(C([H])([H])[H])C(=O)C1(C([H])([H])C([H])([H])[H])C1([H])c3c([H])c([H])c([H])c([H])c3C21[H]

$$$$
113:0:2
     RDKit          3D

 36 39  0  0  1  0  0  0  0  0999 V2000
    4.1340    1.4797    4.7990 C   0  0  0  0  0  0  0  0  0  0  0  0
    2.8159    1.1493    5.5508 C   0  0  0  0  0  0  0  0  0  0  0  0
    1.6371    0.6136    4.6817 C   0  0  1  0  0  0  0  0  0  0  0  0
    1.9449   -0.8442    4.2975 C   0  0  0  0  0  0  0  0  0  0  0  0
    3.0720   -1.2409    4.0078 O   0  0  0  0  0  0  0  0  0  0  0  0
    0.8295   -1.8290    4.2746 C   0  0  0  0  0  0  0  0  0  0  0  0
    1.1476   -3.1826    3.6637 C   0  0  0  0  0  0  0  0  0  0  0  0
   -0.3840   -1.5738    4.7930 C   0  0  0  0  0  0  0  0  0  0  0  0
   -0.7560   -0.3063    5.4234 C   0  0  0  0  0  0  0  0  0  0  0  0
   -1.8054   -0.2642    6.0822 O   0  0  0  0  0  0  0  0  0  0  0  0
    0.1772    0.8744    5.2369 C   0  0  1  0  0  0  0  0  0  0  0  0
    0.1018    1.6073    6.4394 O   0  0  0  0  0  0  0  0  0  0  0  0
   -0.1777    1.7207    3.9935 C   0  0  1  0  0  0  0  0  0  0  0  0
    0.1220    3.1939    3.9026 C   0  0  0  0  0  0  0  0  0  0  0  0
   -0.4059    4.4421    4.2247 C   0  0  0  0  0  0  0  0  0  0  0  0
    0.5147    5.5149    4.0196 C   0  0  0  0  0  0  0  0  0  0  0  0
    1.8432    5.3094    3.5242 C   0  0  0  0  0  0  0  0  0  0  0  0
    2.3463    4.0248    3.1755 C   0  0  0  0  0  0  0  0  0  0  0  0
    1.4329    2.9901    3.3962 C   0  0  0  0  0  0  0  0  0  0  0  0
    1.2943    1.4850    3.4408 C   0  0  1  0  0  0  0  0  0  0  0  0
    4.8858    1.8574    5.4963 H   0  0  0  0  0  0  0  0  0  0  0  0
    3.9945    2.2598    4.0581 H   0  0  0  0  0  0  0  0  0  0  0  0
    4.5680    0.6343    4.2603 H   0  0  0  0  0  0  0  0  0  0  0  0
    3.0306    0.4509    6.3600 H   0  0  0  0  0  0  0  0  0  0  0  0
    2.5172    2.0777    6.0371 H   0  0  0  0  0  0  0  0  0  0  0  0
    1.4325   -3.0739    2.6149 H   0  0  0  0  0  0  0  0  0  0  0  0
    0.2848   -3.8511    3.7114 H   0  0  0  0  0  0  0  0  0  0  0  0
    1.9711   -3.6659    4.1964 H   0  0  0  0  0  0  0  0  0  0  0  0
   -1.1505   -2.3324    4.7637 H   0  0  0  0  0  0  0  0  0  0  0  0
    0.5796    2.4085    6.2765 H   0  0  0  0  0  0  0  0  0  0  0  0
   -0.9402    1.3425    3.3112 H   0  0  0  0  0  0  0  0  0  0  0  0
   -1.3988    4.5605    4.6328 H   0  0  0  0  0  0  0  0  0  0  0  0
    0.2124    6.5234    4.2541 H   0  0  0  0  0  0  0  0  0  0  0  0
    2.5067    6.1529    3.4264 H   0  0  0  0  0  0  0  0  0  0  0  0
    3.3575    3.8816    2.8219 H   0  0  0  0  0  0  0  0  0  0  0  0
    1.3243    0.9886    2.4707 H   0  0  0  0  0  0  0  0  0  0  0  0
  1  2  1  0
  1 21  1  0
  1 22  1  0
  1 23  1  0
  3  2  1  1
  2 24  1  0
  2 25  1  0
  3 11  1  0
  3 20  1  0
  3  4  1  0
  4  5  2  0
  4  6  1  0
  6  7  1  0
  6  8  2  0
  7 26  1  0
  7 27  1  0
  7 28  1  0
  8  9  1  0
  8 29  1  0
  9 10  2  0
  9 11  1  0
 11 12  1  1
 11 13  1  0
 12 30  1  0
 13 20  1  0
 13 14  1  0
 13 31  1  6
 14 19  2  0
 14 15  1  0
 15 16  2  0
 15 32  1  0
 16 17  1  0
 16 33  1  0
 17 18  2  0
 17 34  1  0
 18 19  1  0
 18 35  1  0
 19 20  1  0
 20 36  1  6
M  END
>  <i_m_ct_stereo_status>  (368) 
1

>  <s_m_source_file>  (368) 
/var/tmp/pbs.5076255.sched01/tmparsu8qf0/123n9qi1oz7.sdf

>  <i_m_source_file_index>  (368) 
35

>  <i_lp_mmshare_version>  (368) 
48012

>  <i_f3d_flags>  (368) 
0

>  <s_epik_input>  (368) 
Tz1DMUMoW0NIM10pPVtDSF1DKD1PKVtDQEBdKFtPSF0pKFtDQEBdMTJbQ0gyXVtDSDNdKVtDQEhdM2M0YyhbQ0BIXTIzKVtjSF1bY0hdW2NIXVtjSF00

>  <s_epik_cmdline>  (368) 
J2VwaWtfcHl0aG9uJywgJy1waHQnLCAnMi4wJywgJy1waCcsICc3LjAnLCAnLXRuJywgJzgnLCAnLW1hJywgJzIwMCcsICctaW1hZScsICc8aW5maWxlLm1hZT4nLCAnLW9tYWUnLCAnPG91dGZpbGUubWFlPic=

>  <r_lp_tautomer_probability>  (368) 
1

>  <r_epik_Ionization_Penalty>  (368) 
0.000128498

>  <r_epik_Ionization_Penalty_Charging>  (368) 
0

>  <r_epik_Ionization_Penalty_Neutral>  (368) 
0.000128498

>  <r_epik_State_Penalty>  (368) 
-0

>  <r_epik_Charging_Adjusted_Penalty>  (368) 
0

>  <i_epik_Tot_Q>  (368) 
0

>  <i_epik_Tot_abs_Q>  (368) 
0

>  <s_lp_Force_Field>  (368) 
OPLS3e

>  <r_lp_Energy>  (368) 
49.561

>  <b_lp_Chiralities_Consistent>  (368) 
1

>  <s_lp_Variant>  (368) 
113:0-1

>  <s_i_glide_gridfile>  (368) 
pfpi4k_grid

>  <i_i_glide_lignum>  (368) 
35

>  <i_i_glide_rotatable_bonds>  (368) 
2

>  <r_i_docking_score>  (368) 
-3.241

>  <r_i_glide_ligand_efficiency>  (368) 
-0.16205

>  <r_i_glide_ligand_efficiency_sa>  (368) 
-0.439872

>  <r_i_glide_ligand_efficiency_ln>  (368) 
-0.811117

>  <r_i_glide_gscore>  (368) 
-3.241

>  <r_i_glide_lipo>  (368) 
-0.0540512

>  <r_i_glide_hbond>  (368) 
-0.142485

>  <r_i_glide_metal>  (368) 
-0

>  <r_i_glide_rewards>  (368) 
-1.57972

>  <r_i_glide_evdw>  (368) 
-17.2577

>  <r_i_glide_ecoul>  (368) 
-3.80401

>  <r_i_glide_erotb>  (368) 
0

>  <r_i_glide_esite>  (368) 
-0.0312588

>  <r_i_glide_emodel>  (368) 
-24.34

>  <r_i_glide_energy>  (368) 
-21.0617

>  <r_i_glide_einternal>  (368) 
1.49266

>  <r_i_glide_intrahb_reward>  (368) 
-0

>  <i_i_glide_confnum>  (368) 
1

>  <i_i_glide_posenum>  (368) 
21

>  <r_i_glide_eff_state_penalty>  (368) 
0

>  <ligand_id>  (368) 
113

>  <original_smiles>  (368) 
CCC12C(=O)C(C)=CC(=O)C1(O)C1c3ccccc3C12

>  <smiles>  (368) 
[H]OC12C(=O)C([H])=C(C([H])([H])[H])C(=O)C1(C([H])([H])C([H])([H])[H])C1([H])c3c([H])c([H])c([H])c([H])c3C21[H]

$$$$
114:0:0
     RDKit          3D

 25 29  0  0  1  0  0  0  0  0999 V2000
    2.2234   -3.2127   -2.1777 C   0  0  0  0  0  0  0  0  0  0  0  0
    2.8108   -2.7250   -3.5238 C   0  0  0  0  0  0  0  0  0  0  0  0
    4.2761   -2.3827   -3.3541 C   0  0  1  0  0  0  0  0  0  0  0  0
    4.5971   -1.4109   -2.1767 C   0  0  1  0  0  0  0  0  0  0  0  0
    3.7753   -1.6150   -0.8641 C   0  0  2  0  0  0  0  0  0  0  0  0
    4.8530   -1.8242    0.2266 C   0  0  0  0  0  0  0  0  0  0  0  0
    5.6028   -2.8941   -0.5287 C   0  0  1  0  0  0  0  0  0  0  0  0
    4.5295   -3.8049   -1.1848 C   0  0  1  0  0  0  0  0  0  0  0  0
    3.2014   -3.0594   -0.9750 C   0  0  2  0  0  0  0  0  0  0  0  0
    5.0876   -3.4323   -2.5716 C   0  0  2  0  0  0  0  0  0  0  0  0
    5.8198   -2.2943   -1.9033 C   0  0  1  0  0  0  0  0  0  0  0  0
    1.8991   -4.2505   -2.2633 H   0  0  0  0  0  0  0  0  0  0  0  0
    1.3150   -2.6638   -1.9766 H   0  0  0  0  0  0  0  0  0  0  0  0
    2.6770   -3.4849   -4.2854 H   0  0  0  0  0  0  0  0  0  0  0  0
    2.2609   -1.8550   -3.8720 H   0  0  0  0  0  0  0  0  0  0  0  0
    4.7873   -2.0594   -4.2616 H   0  0  0  0  0  0  0  0  0  0  0  0
    4.8623   -0.3959   -2.4573 H   0  0  0  0  0  0  0  0  0  0  0  0
    3.0313   -0.8404   -0.6574 H   0  0  0  0  0  0  0  0  0  0  0  0
    5.4472   -0.9331    0.3954 H   0  0  0  0  0  0  0  0  0  0  0  0
    4.4438   -2.1679    1.1738 H   0  0  0  0  0  0  0  0  0  0  0  0
    6.4623   -3.4071   -0.0895 H   0  0  0  0  0  0  0  0  0  0  0  0
    4.5861   -4.8678   -0.9532 H   0  0  0  0  0  0  0  0  0  0  0  0
    2.7178   -3.3724   -0.0468 H   0  0  0  0  0  0  0  0  0  0  0  0
    5.7386   -4.1384   -3.0903 H   0  0  0  0  0  0  0  0  0  0  0  0
    6.8065   -2.0521   -2.2981 H   0  0  0  0  0  0  0  0  0  0  0  0
  1  9  1  0
  1  2  1  0
  1 12  1  0
  1 13  1  0
  2  3  1  0
  2 14  1  0
  2 15  1  0
  3 10  1  0
  3  4  1  0
  3 16  1  6
  4 11  1  0
  4  5  1  0
  4 17  1  6
  5  9  1  0
  5  6  1  0
  5 18  1  1
  6  7  1  0
  6 19  1  0
  6 20  1  0
  7 11  1  0
  7  8  1  0
  7 21  1  1
  8  9  1  0
  8 10  1  0
  8 22  1  1
  9 23  1  1
 10 11  1  0
 10 24  1  6
 11 25  1  6
M  END
>  <i_m_ct_stereo_status>  (369) 
1

>  <s_m_source_file>  (369) 
/var/tmp/pbs.5076255.sched01/tmparsu8qf0/123n9qi1oz7.sdf

>  <i_m_source_file_index>  (369) 
36

>  <i_lp_mmshare_version>  (369) 
48012

>  <i_f3d_flags>  (369) 
0

>  <s_epik_input>  (369) 
W0NAQEhdMTJbQ0BIXTNbQ0BIXTRbQ0BASF0oW0NIMl1bQ0gyXTEpW0NAQEhdNVtDQEhdKFtDSDJdNClbQ0BIXTNbQ0BIXTI1

>  <s_epik_cmdline>  (369) 
J2VwaWtfcHl0aG9uJywgJy1waHQnLCAnMi4wJywgJy1waCcsICc3LjAnLCAnLXRuJywgJzgnLCAnLW1hJywgJzIwMCcsICctaW1hZScsICc8aW5maWxlLm1hZT4nLCAnLW9tYWUnLCAnPG91dGZpbGUubWFlPic=

>  <r_lp_tautomer_probability>  (369) 
1

>  <r_epik_Ionization_Penalty>  (369) 
0

>  <r_epik_Ionization_Penalty_Charging>  (369) 
0

>  <r_epik_Ionization_Penalty_Neutral>  (369) 
0

>  <r_epik_State_Penalty>  (369) 
-0

>  <r_epik_Charging_Adjusted_Penalty>  (369) 
0

>  <i_epik_Tot_Q>  (369) 
0

>  <i_epik_Tot_abs_Q>  (369) 
0

>  <s_lp_Force_Field>  (369) 
OPLS3e

>  <r_lp_Energy>  (369) 
70.4751

>  <b_lp_Chiralities_Consistent>  (369) 
1

>  <s_lp_Variant>  (369) 
114:0-1

>  <s_i_glide_gridfile>  (369) 
pfpi4k_grid

>  <i_i_glide_lignum>  (369) 
36

>  <i_i_glide_rotatable_bonds>  (369) 
0

>  <r_i_docking_score>  (369) 
-3.90866

>  <r_i_glide_ligand_efficiency>  (369) 
-0.355333

>  <r_i_glide_ligand_efficiency_sa>  (369) 
-0.790253

>  <r_i_glide_ligand_efficiency_ln>  (369) 
-1.15032

>  <r_i_glide_gscore>  (369) 
-3.90866

>  <r_i_glide_lipo>  (369) 
-0.709694

>  <r_i_glide_hbond>  (369) 
0

>  <r_i_glide_metal>  (369) 
-0

>  <r_i_glide_rewards>  (369) 
-2.25

>  <r_i_glide_evdw>  (369) 
-17.5905

>  <r_i_glide_ecoul>  (369) 
-0.462951

>  <r_i_glide_erotb>  (369) 
0

>  <r_i_glide_esite>  (369) 
0

>  <r_i_glide_emodel>  (369) 
-22.2991

>  <r_i_glide_energy>  (369) 
-18.0535

>  <r_i_glide_einternal>  (369) 
0

>  <r_i_glide_intrahb_reward>  (369) 
-0

>  <i_i_glide_confnum>  (369) 
1

>  <i_i_glide_posenum>  (369) 
1

>  <r_i_glide_eff_state_penalty>  (369) 
0

>  <ligand_id>  (369) 
114

>  <original_smiles>  (369) 
C1CC2C3C4CC5C(C14)C2C53

>  <smiles>  (369) 
[H]C1([H])C([H])([H])C2([H])C3([H])C4([H])C([H])([H])C5([H])C([H])(C14[H])C2([H])C53[H]

$$$$
114:0:1
     RDKit          3D

 25 29  0  0  1  0  0  0  0  0999 V2000
    5.0919   -3.7124   -3.0405 C   0  0  0  0  0  0  0  0  0  0  0  0
    3.8846   -2.8468   -3.4872 C   0  0  0  0  0  0  0  0  0  0  0  0
    3.4315   -1.9467   -2.3486 C   0  0  1  0  0  0  0  0  0  0  0  0
    3.1832   -2.6892   -1.0023 C   0  0  1  0  0  0  0  0  0  0  0  0
    4.1684   -3.8404   -0.6422 C   0  0  2  0  0  0  0  0  0  0  0  0
    4.7254   -3.4218    0.7424 C   0  0  0  0  0  0  0  0  0  0  0  0
    5.1026   -2.0162    0.3238 C   0  0  1  0  0  0  0  0  0  0  0  0
    5.7078   -2.1369   -1.1005 C   0  0  1  0  0  0  0  0  0  0  0  0
    5.4192   -3.5832   -1.5286 C   0  0  2  0  0  0  0  0  0  0  0  0
    4.5850   -1.2213   -1.6199 C   0  0  2  0  0  0  0  0  0  0  0  0
    3.8416   -1.4793   -0.3348 C   0  0  1  0  0  0  0  0  0  0  0  0
    5.9777   -3.4353   -3.6098 H   0  0  0  0  0  0  0  0  0  0  0  0
    4.8981   -4.7565   -3.2825 H   0  0  0  0  0  0  0  0  0  0  0  0
    4.1501   -2.2506   -4.3582 H   0  0  0  0  0  0  0  0  0  0  0  0
    3.0640   -3.4935   -3.8001 H   0  0  0  0  0  0  0  0  0  0  0  0
    2.6141   -1.2682   -2.5957 H   0  0  0  0  0  0  0  0  0  0  0  0
    2.1404   -2.8332   -0.7166 H   0  0  0  0  0  0  0  0  0  0  0  0
    3.7547   -4.8451   -0.7060 H   0  0  0  0  0  0  0  0  0  0  0  0
    3.9586   -3.4387    1.5183 H   0  0  0  0  0  0  0  0  0  0  0  0
    5.5747   -4.0230    1.0688 H   0  0  0  0  0  0  0  0  0  0  0  0
    5.6076   -1.3480    1.0234 H   0  0  0  0  0  0  0  0  0  0  0  0
    6.7225   -1.7611   -1.2285 H   0  0  0  0  0  0  0  0  0  0  0  0
    6.2313   -4.2525   -1.2484 H   0  0  0  0  0  0  0  0  0  0  0  0
    4.8010   -0.1752   -1.8468 H   0  0  0  0  0  0  0  0  0  0  0  0
    3.2328   -0.6822    0.1009 H   0  0  0  0  0  0  0  0  0  0  0  0
  1  9  1  0
  1  2  1  0
  1 12  1  0
  1 13  1  0
  2  3  1  0
  2 14  1  0
  2 15  1  0
  3 10  1  0
  3  4  1  0
  3 16  1  6
  4 11  1  0
  4  5  1  0
  4 17  1  1
  5  9  1  0
  5  6  1  0
  5 18  1  1
  6  7  1  0
  6 19  1  0
  6 20  1  0
  7 11  1  0
  7  8  1  0
  7 21  1  1
  8  9  1  0
  8 10  1  0
  8 22  1  1
  9 23  1  1
 10 11  1  0
 10 24  1  6
 11 25  1  1
M  END
>  <i_m_ct_stereo_status>  (370) 
1

>  <s_m_source_file>  (370) 
/var/tmp/pbs.5076255.sched01/tmparsu8qf0/123n9qi1oz7.sdf

>  <i_m_source_file_index>  (370) 
36

>  <i_lp_mmshare_version>  (370) 
48012

>  <i_f3d_flags>  (370) 
0

>  <s_epik_input>  (370) 
W0NAQEhdMTJbQ0BIXTNbQ0BIXTRbQ0BASF0oW0NIMl1bQ0gyXTEpW0NAQEhdNVtDQEhdKFtDSDJdNClbQ0BIXTNbQ0BIXTI1

>  <s_epik_cmdline>  (370) 
J2VwaWtfcHl0aG9uJywgJy1waHQnLCAnMi4wJywgJy1waCcsICc3LjAnLCAnLXRuJywgJzgnLCAnLW1hJywgJzIwMCcsICctaW1hZScsICc8aW5maWxlLm1hZT4nLCAnLW9tYWUnLCAnPG91dGZpbGUubWFlPic=

>  <r_lp_tautomer_probability>  (370) 
1

>  <r_epik_Ionization_Penalty>  (370) 
0

>  <r_epik_Ionization_Penalty_Charging>  (370) 
0

>  <r_epik_Ionization_Penalty_Neutral>  (370) 
0

>  <r_epik_State_Penalty>  (370) 
-0

>  <r_epik_Charging_Adjusted_Penalty>  (370) 
0

>  <i_epik_Tot_Q>  (370) 
0

>  <i_epik_Tot_abs_Q>  (370) 
0

>  <s_lp_Force_Field>  (370) 
OPLS3e

>  <r_lp_Energy>  (370) 
70.4751

>  <b_lp_Chiralities_Consistent>  (370) 
1

>  <s_lp_Variant>  (370) 
114:0-1

>  <s_i_glide_gridfile>  (370) 
pfpi4k_grid

>  <i_i_glide_lignum>  (370) 
36

>  <i_i_glide_rotatable_bonds>  (370) 
0

>  <r_i_docking_score>  (370) 
-3.47849

>  <r_i_glide_ligand_efficiency>  (370) 
-0.316226

>  <r_i_glide_ligand_efficiency_sa>  (370) 
-0.703281

>  <r_i_glide_ligand_efficiency_ln>  (370) 
-1.02372

>  <r_i_glide_gscore>  (370) 
-3.47849

>  <r_i_glide_lipo>  (370) 
-0.419064

>  <r_i_glide_hbond>  (370) 
0

>  <r_i_glide_metal>  (370) 
-0

>  <r_i_glide_rewards>  (370) 
-2.25

>  <r_i_glide_evdw>  (370) 
-17.1777

>  <r_i_glide_ecoul>  (370) 
0.329722

>  <r_i_glide_erotb>  (370) 
0

>  <r_i_glide_esite>  (370) 
0

>  <r_i_glide_emodel>  (370) 
-20.6311

>  <r_i_glide_energy>  (370) 
-16.848

>  <r_i_glide_einternal>  (370) 
0

>  <r_i_glide_intrahb_reward>  (370) 
-0

>  <i_i_glide_confnum>  (370) 
1

>  <i_i_glide_posenum>  (370) 
15

>  <r_i_glide_eff_state_penalty>  (370) 
0

>  <ligand_id>  (370) 
114

>  <original_smiles>  (370) 
C1CC2C3C4CC5C(C14)C2C53

>  <smiles>  (370) 
[H]C1([H])C([H])([H])C2([H])C3([H])C4([H])C([H])([H])C5([H])C([H])(C14[H])C2([H])C53[H]

$$$$
114:0:2
     RDKit          3D

 25 29  0  0  1  0  0  0  0  0999 V2000
    3.0801   -3.9214   -0.3848 C   0  0  0  0  0  0  0  0  0  0  0  0
    3.1635   -2.9617   -1.5995 C   0  0  0  0  0  0  0  0  0  0  0  0
    4.3312   -2.0081   -1.4322 C   0  0  1  0  0  0  0  0  0  0  0  0
    4.3615   -1.2701   -0.0541 C   0  0  1  0  0  0  0  0  0  0  0  0
    3.9487   -2.0966    1.1973 C   0  0  2  0  0  0  0  0  0  0  0  0
    5.1766   -1.9882    2.1357 C   0  0  0  0  0  0  0  0  0  0  0  0
    6.1819   -2.3984    1.0893 C   0  0  1  0  0  0  0  0  0  0  0  0
    5.5327   -3.5465    0.2774 C   0  0  1  0  0  0  0  0  0  0  0  0
    4.0703   -3.5781    0.7489 C   0  0  2  0  0  0  0  0  0  0  0  0
    5.6381   -2.6805   -0.9904 C   0  0  2  0  0  0  0  0  0  0  0  0
    5.8785   -1.4948   -0.0792 C   0  0  1  0  0  0  0  0  0  0  0  0
    3.2754   -4.9386   -0.7170 H   0  0  0  0  0  0  0  0  0  0  0  0
    2.0635   -3.9223    0.0075 H   0  0  0  0  0  0  0  0  0  0  0  0
    3.2593   -3.5273   -2.5222 H   0  0  0  0  0  0  0  0  0  0  0  0
    2.2336   -2.4044   -1.6970 H   0  0  0  0  0  0  0  0  0  0  0  0
    4.4943   -1.3043   -2.2575 H   0  0  0  0  0  0  0  0  0  0  0  0
    4.1088   -0.2146   -0.0808 H   0  0  0  0  0  0  0  0  0  0  0  0
    2.9854   -1.8139    1.6314 H   0  0  0  0  0  0  0  0  0  0  0  0
    5.3382   -0.9765    2.4933 H   0  0  0  0  0  0  0  0  0  0  0  0
    5.1347   -2.6683    2.9857 H   0  0  0  0  0  0  0  0  0  0  0  0
    7.2459   -2.5206    1.3167 H   0  0  0  0  0  0  0  0  0  0  0  0
    6.0958   -4.4743    0.2298 H   0  0  0  0  0  0  0  0  0  0  0  0
    3.9526   -4.2605    1.5865 H   0  0  0  0  0  0  0  0  0  0  0  0
    6.4407   -2.8695   -1.7075 H   0  0  0  0  0  0  0  0  0  0  0  0
    6.5535   -0.7013   -0.3884 H   0  0  0  0  0  0  0  0  0  0  0  0
  1  9  1  0
  1  2  1  0
  1 12  1  0
  1 13  1  0
  2  3  1  0
  2 14  1  0
  2 15  1  0
  3 10  1  0
  3  4  1  0
  3 16  1  6
  4 11  1  0
  4  5  1  0
  4 17  1  6
  5  9  1  0
  5  6  1  0
  5 18  1  1
  6  7  1  0
  6 19  1  0
  6 20  1  0
  7 11  1  0
  7  8  1  0
  7 21  1  1
  8  9  1  0
  8 10  1  0
  8 22  1  6
  9 23  1  1
 10 11  1  0
 10 24  1  6
 11 25  1  6
M  END
>  <i_m_ct_stereo_status>  (371) 
1

>  <s_m_source_file>  (371) 
/var/tmp/pbs.5076255.sched01/tmparsu8qf0/123n9qi1oz7.sdf

>  <i_m_source_file_index>  (371) 
36

>  <i_lp_mmshare_version>  (371) 
48012

>  <i_f3d_flags>  (371) 
0

>  <s_epik_input>  (371) 
W0NAQEhdMTJbQ0BIXTNbQ0BIXTRbQ0BASF0oW0NIMl1bQ0gyXTEpW0NAQEhdNVtDQEhdKFtDSDJdNClbQ0BIXTNbQ0BIXTI1

>  <s_epik_cmdline>  (371) 
J2VwaWtfcHl0aG9uJywgJy1waHQnLCAnMi4wJywgJy1waCcsICc3LjAnLCAnLXRuJywgJzgnLCAnLW1hJywgJzIwMCcsICctaW1hZScsICc8aW5maWxlLm1hZT4nLCAnLW9tYWUnLCAnPG91dGZpbGUubWFlPic=

>  <r_lp_tautomer_probability>  (371) 
1

>  <r_epik_Ionization_Penalty>  (371) 
0

>  <r_epik_Ionization_Penalty_Charging>  (371) 
0

>  <r_epik_Ionization_Penalty_Neutral>  (371) 
0

>  <r_epik_State_Penalty>  (371) 
-0

>  <r_epik_Charging_Adjusted_Penalty>  (371) 
0

>  <i_epik_Tot_Q>  (371) 
0

>  <i_epik_Tot_abs_Q>  (371) 
0

>  <s_lp_Force_Field>  (371) 
OPLS3e

>  <r_lp_Energy>  (371) 
70.4751

>  <b_lp_Chiralities_Consistent>  (371) 
1

>  <s_lp_Variant>  (371) 
114:0-1

>  <s_i_glide_gridfile>  (371) 
pfpi4k_grid

>  <i_i_glide_lignum>  (371) 
36

>  <i_i_glide_rotatable_bonds>  (371) 
0

>  <r_i_docking_score>  (371) 
-3.20568

>  <r_i_glide_ligand_efficiency>  (371) 
-0.291425

>  <r_i_glide_ligand_efficiency_sa>  (371) 
-0.648124

>  <r_i_glide_ligand_efficiency_ln>  (371) 
-0.943431

>  <r_i_glide_gscore>  (371) 
-3.20568

>  <r_i_glide_lipo>  (371) 
-0.245138

>  <r_i_glide_hbond>  (371) 
0

>  <r_i_glide_metal>  (371) 
-0

>  <r_i_glide_rewards>  (371) 
-2.25

>  <r_i_glide_evdw>  (371) 
-13.3936

>  <r_i_glide_ecoul>  (371) 
-0.272417

>  <r_i_glide_erotb>  (371) 
0

>  <r_i_glide_esite>  (371) 
0

>  <r_i_glide_emodel>  (371) 
-17.1418

>  <r_i_glide_energy>  (371) 
-13.666

>  <r_i_glide_einternal>  (371) 
0

>  <r_i_glide_intrahb_reward>  (371) 
-0

>  <i_i_glide_confnum>  (371) 
2

>  <i_i_glide_posenum>  (371) 
13

>  <r_i_glide_eff_state_penalty>  (371) 
0

>  <ligand_id>  (371) 
114

>  <original_smiles>  (371) 
C1CC2C3C4CC5C(C14)C2C53

>  <smiles>  (371) 
[H]C1([H])C([H])([H])C2([H])C3([H])C4([H])C([H])([H])C5([H])C([H])(C14[H])C2([H])C53[H]

$$$$
115:0:0
     RDKit          3D

 40 43  0  0  1  0  0  0  0  0999 V2000
    4.2348   -8.7612    0.6034 C   0  0  0  0  0  0  0  0  0  0  0  0
    3.8779   -8.0061    1.8957 C   0  0  2  0  0  0  0  0  0  0  0  0
    3.4927   -8.9136    3.0834 C   0  0  0  0  0  0  0  0  0  0  0  0
    2.1724   -9.6926    2.9548 C   0  0  0  0  0  0  0  0  0  0  0  0
    0.9394   -8.8404    3.2179 C   0  0  0  0  0  0  0  0  0  0  0  0
    0.0610   -9.1898    4.2601 C   0  0  0  0  0  0  0  0  0  0  0  0
   -1.0748   -8.3968    4.4756 C   0  0  0  0  0  0  0  0  0  0  0  0
   -1.3121   -7.3070    3.6294 C   0  0  0  0  0  0  0  0  0  0  0  0
   -0.4916   -6.9578    2.6194 N   0  0  0  0  0  0  0  0  0  0  0  0
    0.6202   -7.7095    2.4307 C   0  0  0  0  0  0  0  0  0  0  0  0
    1.5046   -7.2822    1.2804 C   0  0  0  0  0  0  0  0  0  0  0  0
    2.8842   -6.9286    1.6799 N   0  0  0  0  0  0  0  0  0  0  0  0
    3.2533   -5.2872    2.1195 S   0  0  0  0  0  0  0  0  0  0  0  0
    1.9878   -4.6161    2.4496 O   0  0  0  0  0  0  0  0  0  0  0  0
    4.3580   -5.2987    3.0916 O   0  0  0  0  0  0  0  0  0  0  0  0
    3.8679   -4.5700    0.5956 C   0  0  0  0  0  0  0  0  0  0  0  0
    5.2565   -4.4583    0.3781 C   0  0  0  0  0  0  0  0  0  0  0  0
    5.7401   -3.8183   -0.7860 C   0  0  0  0  0  0  0  0  0  0  0  0
    4.8549   -3.2878   -1.7553 C   0  0  0  0  0  0  0  0  0  0  0  0
    5.1638   -2.6461   -2.9558 N   0  0  0  0  0  0  0  0  0  0  0  0
    4.1216   -2.2451   -3.6285 N   0  0  0  0  0  0  0  0  0  0  0  0
    2.6765   -2.6573   -2.8722 S   0  0  0  0  0  0  0  0  0  0  0  0
    3.4638   -3.4118   -1.5033 C   0  0  0  0  0  0  0  0  0  0  0  0
    2.9640   -4.0433   -0.3493 C   0  0  0  0  0  0  0  0  0  0  0  0
    5.0362   -9.4737    0.7947 H   0  0  0  0  0  0  0  0  0  0  0  0
    4.6001   -8.0789   -0.1659 H   0  0  0  0  0  0  0  0  0  0  0  0
    3.4101   -9.3419    0.1973 H   0  0  0  0  0  0  0  0  0  0  0  0
    4.8160   -7.5324    2.1873 H   0  0  0  0  0  0  0  0  0  0  0  0
    4.2950   -9.6429    3.1962 H   0  0  0  0  0  0  0  0  0  0  0  0
    3.4898   -8.3356    4.0092 H   0  0  0  0  0  0  0  0  0  0  0  0
    2.0907  -10.1841    1.9863 H   0  0  0  0  0  0  0  0  0  0  0  0
    2.1864  -10.4996    3.6881 H   0  0  0  0  0  0  0  0  0  0  0  0
    0.2312  -10.0602    4.8777 H   0  0  0  0  0  0  0  0  0  0  0  0
   -1.7715   -8.6548    5.2575 H   0  0  0  0  0  0  0  0  0  0  0  0
   -2.1836   -6.6884    3.7779 H   0  0  0  0  0  0  0  0  0  0  0  0
    1.4751   -8.0993    0.5671 H   0  0  0  0  0  0  0  0  0  0  0  0
    1.0612   -6.4285    0.7671 H   0  0  0  0  0  0  0  0  0  0  0  0
    5.9593   -4.8383    1.1082 H   0  0  0  0  0  0  0  0  0  0  0  0
    6.8056   -3.7268   -0.9412 H   0  0  0  0  0  0  0  0  0  0  0  0
    1.9011   -4.1219   -0.1938 H   0  0  0  0  0  0  0  0  0  0  0  0
  1  2  1  0
  1 25  1  0
  1 26  1  0
  1 27  1  0
  2 12  1  0
  2  3  1  0
  2 28  1  1
  3  4  1  0
  3 29  1  0
  3 30  1  0
  4  5  1  0
  4 31  1  0
  4 32  1  0
  5 10  2  0
  5  6  1  0
  6  7  2  0
  6 33  1  0
  7  8  1  0
  7 34  1  0
  8  9  2  0
  8 35  1  0
  9 10  1  0
 10 11  1  0
 11 12  1  0
 11 36  1  0
 11 37  1  0
 12 13  1  0
 13 14  2  0
 13 15  2  0
 13 16  1  0
 16 24  1  0
 16 17  2  0
 17 18  1  0
 17 38  1  0
 18 19  2  0
 18 39  1  0
 19 23  1  0
 19 20  1  0
 20 21  2  0
 21 22  1  0
 22 23  1  0
 23 24  2  0
 24 40  1  0
M  END
>  <i_m_ct_stereo_status>  (372) 
1

>  <s_m_source_file>  (372) 
/var/tmp/pbs.5076255.sched01/tmparsu8qf0/123n9qi1oz7.sdf

>  <i_m_source_file_index>  (372) 
37

>  <i_lp_mmshare_version>  (372) 
48012

>  <i_f3d_flags>  (372) 
0

>  <s_epik_input>  (372) 
W2NIXTFbY0hdW2NIXW5jKGMxMilbQ0gyXU4oW0NASF0oW0NIM10pW0NIMl1bQ0gyXTIpUyg9TykoPU8pYyhbY0hdW2NIXTMpW2NIXWMoYzM0KXNubjQ=

>  <s_epik_cmdline>  (372) 
J2VwaWtfcHl0aG9uJywgJy1waHQnLCAnMi4wJywgJy1waCcsICc3LjAnLCAnLXRuJywgJzgnLCAnLW1hJywgJzIwMCcsICctaW1hZScsICc8aW5maWxlLm1hZT4nLCAnLW9tYWUnLCAnPG91dGZpbGUubWFlPic=

>  <r_epik_Ionization_Penalty>  (372) 
0.000545004

>  <r_epik_Ionization_Penalty_Charging>  (372) 
0

>  <r_epik_Ionization_Penalty_Neutral>  (372) 
0.000545004

>  <r_epik_State_Penalty>  (372) 
0.000341046

>  <r_epik_Charging_Adjusted_Penalty>  (372) 
0.000341046

>  <i_epik_Tot_Q>  (372) 
0

>  <i_epik_Tot_abs_Q>  (372) 
0

>  <s_lp_Force_Field>  (372) 
OPLS3e

>  <r_lp_Energy>  (372) 
19.7005

>  <b_lp_Chiralities_Consistent>  (372) 
1

>  <s_lp_Variant>  (372) 
115:0-1

>  <s_i_glide_gridfile>  (372) 
pfpi4k_grid

>  <i_i_glide_lignum>  (372) 
37

>  <i_i_glide_rotatable_bonds>  (372) 
2

>  <r_i_docking_score>  (372) 
-3.15861

>  <r_i_glide_ligand_efficiency>  (372) 
-0.131609

>  <r_i_glide_ligand_efficiency_sa>  (372) 
-0.379625

>  <r_i_glide_ligand_efficiency_ln>  (372) 
-0.756

>  <r_i_glide_gscore>  (372) 
-3.15861

>  <r_i_glide_lipo>  (372) 
-0.257027

>  <r_i_glide_hbond>  (372) 
-0.1595

>  <r_i_glide_metal>  (372) 
-0

>  <r_i_glide_rewards>  (372) 
-0.982257

>  <r_i_glide_evdw>  (372) 
-31.4033

>  <r_i_glide_ecoul>  (372) 
-3.14473

>  <r_i_glide_erotb>  (372) 
0.295227

>  <r_i_glide_esite>  (372) 
-0.0131769

>  <r_i_glide_emodel>  (372) 
-41.018

>  <r_i_glide_energy>  (372) 
-34.548

>  <r_i_glide_einternal>  (372) 
1.79647

>  <r_i_glide_intrahb_reward>  (372) 
-0

>  <i_i_glide_confnum>  (372) 
5

>  <i_i_glide_posenum>  (372) 
20

>  <r_i_glide_eff_state_penalty>  (372) 
0

>  <ligand_id>  (372) 
115

>  <original_smiles>  (372) 
CC1CCc2cccnc2CN1S(=O)(=O)c1ccc2nnsc2c1

>  <smiles>  (372) 
[H]c1nc2c(c([H])c1[H])C([H])([H])C([H])([H])C([H])(C([H])([H])[H])N(S(=O)(=O)c1c([H])c([H])c3nnsc3c1[H])C2([H])[H]

$$$$
115:0:1
     RDKit          3D

 40 43  0  0  1  0  0  0  0  0999 V2000
    5.0458   -7.0696    0.7199 C   0  0  0  0  0  0  0  0  0  0  0  0
    4.4728   -6.5057    2.0308 C   0  0  2  0  0  0  0  0  0  0  0  0
    4.2751   -7.5487    3.1506 C   0  0  0  0  0  0  0  0  0  0  0  0
    3.1951   -8.6218    2.9177 C   0  0  0  0  0  0  0  0  0  0  0  0
    1.7757   -8.1274    3.1527 C   0  0  0  0  0  0  0  0  0  0  0  0
    0.9632   -8.7457    4.1263 C   0  0  0  0  0  0  0  0  0  0  0  0
   -0.3485   -8.2801    4.3137 C   0  0  0  0  0  0  0  0  0  0  0  0
   -0.8077   -7.2308    3.5051 C   0  0  0  0  0  0  0  0  0  0  0  0
   -0.0536   -6.6427    2.5529 N   0  0  0  0  0  0  0  0  0  0  0  0
    1.2225   -7.0713    2.3956 C   0  0  0  0  0  0  0  0  0  0  0  0
    2.0334   -6.3528    1.3270 C   0  0  0  0  0  0  0  0  0  0  0  0
    3.2567   -5.6905    1.8280 N   0  0  0  0  0  0  0  0  0  0  0  0
    3.2062   -4.0310    2.3417 S   0  0  0  0  0  0  0  0  0  0  0  0
    1.8155   -3.7231    2.7033 O   0  0  0  0  0  0  0  0  0  0  0  0
    4.2828   -3.8106    3.3208 O   0  0  0  0  0  0  0  0  0  0  0  0
    3.5954   -3.0924    0.8598 C   0  0  0  0  0  0  0  0  0  0  0  0
    4.3817   -1.9279    0.9745 C   0  0  0  0  0  0  0  0  0  0  0  0
    4.6556   -1.1444   -0.1707 C   0  0  0  0  0  0  0  0  0  0  0  0
    4.1523   -1.5009   -1.4483 C   0  0  0  0  0  0  0  0  0  0  0  0
    4.3126   -0.8441   -2.6739 N   0  0  0  0  0  0  0  0  0  0  0  0
    3.7180   -1.4326   -3.6724 N   0  0  0  0  0  0  0  0  0  0  0  0
    2.9016   -2.8260   -3.2026 S   0  0  0  0  0  0  0  0  0  0  0  0
    3.3748   -2.6865   -1.5265 C   0  0  0  0  0  0  0  0  0  0  0  0
    3.1010   -3.4825   -0.4016 C   0  0  0  0  0  0  0  0  0  0  0  0
    5.9890   -7.5790    0.9184 H   0  0  0  0  0  0  0  0  0  0  0  0
    5.2680   -6.2718    0.0094 H   0  0  0  0  0  0  0  0  0  0  0  0
    4.3932   -7.7911    0.2326 H   0  0  0  0  0  0  0  0  0  0  0  0
    5.2576   -5.8394    2.3888 H   0  0  0  0  0  0  0  0  0  0  0  0
    5.2289   -8.0624    3.2723 H   0  0  0  0  0  0  0  0  0  0  0  0
    4.0936   -7.0417    4.0995 H   0  0  0  0  0  0  0  0  0  0  0  0
    3.2767   -9.0595    1.9233 H   0  0  0  0  0  0  0  0  0  0  0  0
    3.3808   -9.4395    3.6127 H   0  0  0  0  0  0  0  0  0  0  0  0
    1.3307   -9.5723    4.7159 H   0  0  0  0  0  0  0  0  0  0  0  0
   -0.9953   -8.7371    5.0479 H   0  0  0  0  0  0  0  0  0  0  0  0
   -1.8060   -6.8404    3.6313 H   0  0  0  0  0  0  0  0  0  0  0  0
    2.2895   -7.0506    0.5390 H   0  0  0  0  0  0  0  0  0  0  0  0
    1.3966   -5.6103    0.8492 H   0  0  0  0  0  0  0  0  0  0  0  0
    4.7615   -1.6216    1.9393 H   0  0  0  0  0  0  0  0  0  0  0  0
    5.2481   -0.2489   -0.0699 H   0  0  0  0  0  0  0  0  0  0  0  0
    2.4998   -4.3653   -0.5236 H   0  0  0  0  0  0  0  0  0  0  0  0
  1  2  1  0
  1 25  1  0
  1 26  1  0
  1 27  1  0
  2 12  1  0
  2  3  1  0
  2 28  1  1
  3  4  1  0
  3 29  1  0
  3 30  1  0
  4  5  1  0
  4 31  1  0
  4 32  1  0
  5 10  2  0
  5  6  1  0
  6  7  2  0
  6 33  1  0
  7  8  1  0
  7 34  1  0
  8  9  2  0
  8 35  1  0
  9 10  1  0
 10 11  1  0
 11 12  1  0
 11 36  1  0
 11 37  1  0
 12 13  1  0
 13 14  2  0
 13 15  2  0
 13 16  1  0
 16 24  1  0
 16 17  2  0
 17 18  1  0
 17 38  1  0
 18 19  2  0
 18 39  1  0
 19 23  1  0
 19 20  1  0
 20 21  2  0
 21 22  1  0
 22 23  1  0
 23 24  2  0
 24 40  1  0
M  END
>  <i_m_ct_stereo_status>  (373) 
1

>  <s_m_source_file>  (373) 
/var/tmp/pbs.5076255.sched01/tmparsu8qf0/123n9qi1oz7.sdf

>  <i_m_source_file_index>  (373) 
37

>  <i_lp_mmshare_version>  (373) 
48012

>  <i_f3d_flags>  (373) 
0

>  <s_epik_input>  (373) 
W2NIXTFbY0hdW2NIXW5jKGMxMilbQ0gyXU4oW0NASF0oW0NIM10pW0NIMl1bQ0gyXTIpUyg9TykoPU8pYyhbY0hdW2NIXTMpW2NIXWMoYzM0KXNubjQ=

>  <s_epik_cmdline>  (373) 
J2VwaWtfcHl0aG9uJywgJy1waHQnLCAnMi4wJywgJy1waCcsICc3LjAnLCAnLXRuJywgJzgnLCAnLW1hJywgJzIwMCcsICctaW1hZScsICc8aW5maWxlLm1hZT4nLCAnLW9tYWUnLCAnPG91dGZpbGUubWFlPic=

>  <r_epik_Ionization_Penalty>  (373) 
0.000545004

>  <r_epik_Ionization_Penalty_Charging>  (373) 
0

>  <r_epik_Ionization_Penalty_Neutral>  (373) 
0.000545004

>  <r_epik_State_Penalty>  (373) 
0.000341046

>  <r_epik_Charging_Adjusted_Penalty>  (373) 
0.000341046

>  <i_epik_Tot_Q>  (373) 
0

>  <i_epik_Tot_abs_Q>  (373) 
0

>  <s_lp_Force_Field>  (373) 
OPLS3e

>  <r_lp_Energy>  (373) 
19.7005

>  <b_lp_Chiralities_Consistent>  (373) 
1

>  <s_lp_Variant>  (373) 
115:0-1

>  <s_i_glide_gridfile>  (373) 
pfpi4k_grid

>  <i_i_glide_lignum>  (373) 
37

>  <i_i_glide_rotatable_bonds>  (373) 
2

>  <r_i_docking_score>  (373) 
-2.92404

>  <r_i_glide_ligand_efficiency>  (373) 
-0.121835

>  <r_i_glide_ligand_efficiency_sa>  (373) 
-0.351433

>  <r_i_glide_ligand_efficiency_ln>  (373) 
-0.699856

>  <r_i_glide_gscore>  (373) 
-2.92404

>  <r_i_glide_lipo>  (373) 
-0.225105

>  <r_i_glide_hbond>  (373) 
-0.159766

>  <r_i_glide_metal>  (373) 
-0

>  <r_i_glide_rewards>  (373) 
-0.968628

>  <r_i_glide_evdw>  (373) 
-31.5859

>  <r_i_glide_ecoul>  (373) 
-1.88832

>  <r_i_glide_erotb>  (373) 
0.295227

>  <r_i_glide_esite>  (373) 
-0.00322436

>  <r_i_glide_emodel>  (373) 
-39.2542

>  <r_i_glide_energy>  (373) 
-33.4742

>  <r_i_glide_einternal>  (373) 
2.17915

>  <r_i_glide_intrahb_reward>  (373) 
-0

>  <i_i_glide_confnum>  (373) 
4

>  <i_i_glide_posenum>  (373) 
22

>  <r_i_glide_eff_state_penalty>  (373) 
0

>  <ligand_id>  (373) 
115

>  <original_smiles>  (373) 
CC1CCc2cccnc2CN1S(=O)(=O)c1ccc2nnsc2c1

>  <smiles>  (373) 
[H]c1nc2c(c([H])c1[H])C([H])([H])C([H])([H])C([H])(C([H])([H])[H])N(S(=O)(=O)c1c([H])c([H])c3nnsc3c1[H])C2([H])[H]

$$$$
115:0:2
     RDKit          3D

 40 43  0  0  1  0  0  0  0  0999 V2000
    5.6627   -9.8201    1.8417 C   0  0  0  0  0  0  0  0  0  0  0  0
    4.8654   -9.0858    2.9356 C   0  0  2  0  0  0  0  0  0  0  0  0
    3.9327   -9.9896    3.7710 C   0  0  0  0  0  0  0  0  0  0  0  0
    2.7227  -10.6023    3.0423 C   0  0  0  0  0  0  0  0  0  0  0  0
    1.5728   -9.6261    2.8379 C   0  0  0  0  0  0  0  0  0  0  0  0
    0.3033   -9.9114    3.3819 C   0  0  0  0  0  0  0  0  0  0  0  0
   -0.7495   -9.0091    3.1637 C   0  0  0  0  0  0  0  0  0  0  0  0
   -0.4942   -7.8556    2.4055 C   0  0  0  0  0  0  0  0  0  0  0  0
    0.7143   -7.5571    1.8847 N   0  0  0  0  0  0  0  0  0  0  0  0
    1.7281   -8.4331    2.0928 C   0  0  0  0  0  0  0  0  0  0  0  0
    3.0608   -8.0689    1.4542 C   0  0  0  0  0  0  0  0  0  0  0  0
    4.1564   -7.8903    2.4260 N   0  0  0  0  0  0  0  0  0  0  0  0
    4.4551   -6.3206    3.1072 S   0  0  0  0  0  0  0  0  0  0  0  0
    3.2358   -5.5146    2.9427 O   0  0  0  0  0  0  0  0  0  0  0  0
    5.0523   -6.4962    4.4395 O   0  0  0  0  0  0  0  0  0  0  0  0
    5.7212   -5.6379    2.0383 C   0  0  0  0  0  0  0  0  0  0  0  0
    7.0623   -6.0550    2.1793 C   0  0  0  0  0  0  0  0  0  0  0  0
    8.0750   -5.4529    1.3989 C   0  0  0  0  0  0  0  0  0  0  0  0
    7.7733   -4.4227    0.4766 C   0  0  0  0  0  0  0  0  0  0  0  0
    8.6391   -3.7188   -0.3634 N   0  0  0  0  0  0  0  0  0  0  0  0
    8.0470   -2.8289   -1.1167 N   0  0  0  0  0  0  0  0  0  0  0  0
    6.3839   -2.7775   -0.8582 S   0  0  0  0  0  0  0  0  0  0  0  0
    6.4115   -4.0358    0.3533 C   0  0  0  0  0  0  0  0  0  0  0  0
    5.3905   -4.6277    1.1145 C   0  0  0  0  0  0  0  0  0  0  0  0
    6.2313  -10.6417    2.2771 H   0  0  0  0  0  0  0  0  0  0  0  0
    6.3849   -9.1586    1.3612 H   0  0  0  0  0  0  0  0  0  0  0  0
    5.0287  -10.2532    1.0713 H   0  0  0  0  0  0  0  0  0  0  0  0
    5.6322   -8.7411    3.6292 H   0  0  0  0  0  0  0  0  0  0  0  0
    4.5416  -10.8126    4.1441 H   0  0  0  0  0  0  0  0  0  0  0  0
    3.5944   -9.4540    4.6594 H   0  0  0  0  0  0  0  0  0  0  0  0
    3.0161  -11.0412    2.0893 H   0  0  0  0  0  0  0  0  0  0  0  0
    2.3547  -11.4340    3.6438 H   0  0  0  0  0  0  0  0  0  0  0  0
    0.1275  -10.8128    3.9521 H   0  0  0  0  0  0  0  0  0  0  0  0
   -1.7281   -9.2044    3.5777 H   0  0  0  0  0  0  0  0  0  0  0  0
   -1.2831   -7.1407    2.2285 H   0  0  0  0  0  0  0  0  0  0  0  0
    3.3243   -8.8399    0.7320 H   0  0  0  0  0  0  0  0  0  0  0  0
    2.9487   -7.1484    0.8794 H   0  0  0  0  0  0  0  0  0  0  0  0
    7.3238   -6.8153    2.9038 H   0  0  0  0  0  0  0  0  0  0  0  0
    9.0996   -5.7758    1.5155 H   0  0  0  0  0  0  0  0  0  0  0  0
    4.3699   -4.2903    1.0075 H   0  0  0  0  0  0  0  0  0  0  0  0
  1  2  1  0
  1 25  1  0
  1 26  1  0
  1 27  1  0
  2 12  1  0
  2  3  1  0
  2 28  1  1
  3  4  1  0
  3 29  1  0
  3 30  1  0
  4  5  1  0
  4 31  1  0
  4 32  1  0
  5 10  2  0
  5  6  1  0
  6  7  2  0
  6 33  1  0
  7  8  1  0
  7 34  1  0
  8  9  2  0
  8 35  1  0
  9 10  1  0
 10 11  1  0
 11 12  1  0
 11 36  1  0
 11 37  1  0
 12 13  1  0
 13 14  2  0
 13 15  2  0
 13 16  1  0
 16 24  1  0
 16 17  2  0
 17 18  1  0
 17 38  1  0
 18 19  2  0
 18 39  1  0
 19 23  1  0
 19 20  1  0
 20 21  2  0
 21 22  1  0
 22 23  1  0
 23 24  2  0
 24 40  1  0
M  END
>  <i_m_ct_stereo_status>  (374) 
1

>  <s_m_source_file>  (374) 
/var/tmp/pbs.5076255.sched01/tmparsu8qf0/123n9qi1oz7.sdf

>  <i_m_source_file_index>  (374) 
37

>  <i_lp_mmshare_version>  (374) 
48012

>  <i_f3d_flags>  (374) 
0

>  <s_epik_input>  (374) 
W2NIXTFbY0hdW2NIXW5jKGMxMilbQ0gyXU4oW0NASF0oW0NIM10pW0NIMl1bQ0gyXTIpUyg9TykoPU8pYyhbY0hdW2NIXTMpW2NIXWMoYzM0KXNubjQ=

>  <s_epik_cmdline>  (374) 
J2VwaWtfcHl0aG9uJywgJy1waHQnLCAnMi4wJywgJy1waCcsICc3LjAnLCAnLXRuJywgJzgnLCAnLW1hJywgJzIwMCcsICctaW1hZScsICc8aW5maWxlLm1hZT4nLCAnLW9tYWUnLCAnPG91dGZpbGUubWFlPic=

>  <r_epik_Ionization_Penalty>  (374) 
0.000545004

>  <r_epik_Ionization_Penalty_Charging>  (374) 
0

>  <r_epik_Ionization_Penalty_Neutral>  (374) 
0.000545004

>  <r_epik_State_Penalty>  (374) 
0.000341046

>  <r_epik_Charging_Adjusted_Penalty>  (374) 
0.000341046

>  <i_epik_Tot_Q>  (374) 
0

>  <i_epik_Tot_abs_Q>  (374) 
0

>  <s_lp_Force_Field>  (374) 
OPLS3e

>  <r_lp_Energy>  (374) 
19.7005

>  <b_lp_Chiralities_Consistent>  (374) 
1

>  <s_lp_Variant>  (374) 
115:0-1

>  <s_i_glide_gridfile>  (374) 
pfpi4k_grid

>  <i_i_glide_lignum>  (374) 
37

>  <i_i_glide_rotatable_bonds>  (374) 
2

>  <r_i_docking_score>  (374) 
-2.91152

>  <r_i_glide_ligand_efficiency>  (374) 
-0.121314

>  <r_i_glide_ligand_efficiency_sa>  (374) 
-0.349929

>  <r_i_glide_ligand_efficiency_ln>  (374) 
-0.696861

>  <r_i_glide_gscore>  (374) 
-2.91152

>  <r_i_glide_lipo>  (374) 
-0.548589

>  <r_i_glide_hbond>  (374) 
0

>  <r_i_glide_metal>  (374) 
-0

>  <r_i_glide_rewards>  (374) 
-0.951437

>  <r_i_glide_evdw>  (374) 
-30.3651

>  <r_i_glide_ecoul>  (374) 
-0.851505

>  <r_i_glide_erotb>  (374) 
0.295227

>  <r_i_glide_esite>  (374) 
-0.0607441

>  <r_i_glide_emodel>  (374) 
-37.113

>  <r_i_glide_energy>  (374) 
-31.2166

>  <r_i_glide_einternal>  (374) 
1.85131

>  <r_i_glide_intrahb_reward>  (374) 
-0

>  <i_i_glide_confnum>  (374) 
4

>  <i_i_glide_posenum>  (374) 
25

>  <r_i_glide_eff_state_penalty>  (374) 
0

>  <ligand_id>  (374) 
115

>  <original_smiles>  (374) 
CC1CCc2cccnc2CN1S(=O)(=O)c1ccc2nnsc2c1

>  <smiles>  (374) 
[H]c1nc2c(c([H])c1[H])C([H])([H])C([H])([H])C([H])(C([H])([H])[H])N(S(=O)(=O)c1c([H])c([H])c3nnsc3c1[H])C2([H])[H]

$$$$
116:0:0
     RDKit          3D

 47 51  0  0  1  0  0  0  0  0999 V2000
    2.3809   -6.1853    4.9017 C   0  0  0  0  0  0  0  0  0  0  0  0
    1.9080   -5.0258    4.0172 C   0  0  0  0  0  0  0  0  0  0  0  0
    0.6185   -4.3722    4.5421 C   0  0  0  0  0  0  0  0  0  0  0  0
    1.7594   -5.4581    2.6302 N   0  0  0  0  0  0  0  0  0  0  0  0
    0.7569   -6.3138    2.3221 N   0  0  0  0  0  0  0  0  0  0  0  0
    0.9307   -6.5972    1.0488 C   0  0  0  0  0  0  0  0  0  0  0  0
    1.9872   -5.8415    0.4781 C   0  0  0  0  0  0  0  0  0  0  0  0
    2.5282   -5.1316    1.5232 C   0  0  0  0  0  0  0  0  0  0  0  0
    3.6869   -4.1638    1.5681 C   0  0  2  0  0  0  0  0  0  0  0  0
    3.2666   -2.7063    1.8856 C   0  0  1  0  0  0  0  0  0  0  0  0
    4.5064   -1.8424    2.1757 C   0  0  0  0  0  0  0  0  0  0  0  0
    5.2282   -1.8086    0.8066 C   0  0  1  0  0  0  0  0  0  0  0  0
    6.4819   -2.6922    0.7880 C   0  0  0  0  0  0  0  0  0  0  0  0
    5.9934   -4.0844    0.3832 C   0  0  0  0  0  0  0  0  0  0  0  0
    4.4631   -3.9821    0.2248 C   0  0  2  0  0  0  0  0  0  0  0  0
    4.1878   -2.5002   -0.1299 C   0  0  2  0  0  0  0  0  0  0  0  0
    4.2410   -2.1684   -1.6453 C   0  0  0  0  0  0  0  0  0  0  0  0
    5.2069   -1.5642   -2.1065 O   0  0  0  0  0  0  0  0  0  0  0  0
    3.2396   -2.5406   -2.4393 N   0  0  0  0  0  0  0  0  0  0  0  0
    2.0066   -3.1805   -2.5352 C   0  0  0  0  0  0  0  0  0  0  0  0
    2.7650   -2.5393   -3.7497 C   0  0  0  0  0  0  0  0  0  0  0  0
    2.8543   -2.1783    0.5311 C   0  0  0  0  0  0  0  0  0  0  0  0
    2.5644   -5.8488    5.9231 H   0  0  0  0  0  0  0  0  0  0  0  0
    3.3123   -6.6029    4.5173 H   0  0  0  0  0  0  0  0  0  0  0  0
    1.6436   -6.9878    4.9329 H   0  0  0  0  0  0  0  0  0  0  0  0
    2.6951   -4.2789    4.0668 H   0  0  0  0  0  0  0  0  0  0  0  0
    0.7686   -3.9633    5.5406 H   0  0  0  0  0  0  0  0  0  0  0  0
   -0.1955   -5.0950    4.5964 H   0  0  0  0  0  0  0  0  0  0  0  0
    0.2998   -3.5540    3.8949 H   0  0  0  0  0  0  0  0  0  0  0  0
    0.2407   -7.2812    0.5689 H   0  0  0  0  0  0  0  0  0  0  0  0
    2.3021   -5.8147   -0.5527 H   0  0  0  0  0  0  0  0  0  0  0  0
    4.3709   -4.5111    2.3401 H   0  0  0  0  0  0  0  0  0  0  0  0
    2.4942   -2.5924    2.6427 H   0  0  0  0  0  0  0  0  0  0  0  0
    4.1970   -0.8387    2.4606 H   0  0  0  0  0  0  0  0  0  0  0  0
    5.1133   -2.2302    2.9929 H   0  0  0  0  0  0  0  0  0  0  0  0
    5.4625   -0.7824    0.5303 H   0  0  0  0  0  0  0  0  0  0  0  0
    7.2074   -2.3196    0.0665 H   0  0  0  0  0  0  0  0  0  0  0  0
    6.9884   -2.7111    1.7471 H   0  0  0  0  0  0  0  0  0  0  0  0
    6.4502   -4.3412   -0.5710 H   0  0  0  0  0  0  0  0  0  0  0  0
    6.2927   -4.8523    1.0961 H   0  0  0  0  0  0  0  0  0  0  0  0
    4.1362   -4.6603   -0.5589 H   0  0  0  0  0  0  0  0  0  0  0  0
    1.9734   -4.2597   -2.4908 H   0  0  0  0  0  0  0  0  0  0  0  0
    1.1233   -2.6580   -2.2026 H   0  0  0  0  0  0  0  0  0  0  0  0
    2.3063   -1.6357   -4.1491 H   0  0  0  0  0  0  0  0  0  0  0  0
    3.1511   -3.2630   -4.4592 H   0  0  0  0  0  0  0  0  0  0  0  0
    2.0194   -2.7335    0.1118 H   0  0  0  0  0  0  0  0  0  0  0  0
    2.6254   -1.1102    0.5346 H   0  0  0  0  0  0  0  0  0  0  0  0
  1  2  1  0
  1 23  1  0
  1 24  1  0
  1 25  1  0
  2  3  1  0
  2  4  1  0
  2 26  1  0
  3 27  1  0
  3 28  1  0
  3 29  1  0
  4  8  1  0
  4  5  1  0
  5  6  2  0
  6  7  1  0
  6 30  1  0
  7  8  2  0
  7 31  1  0
  8  9  1  0
  9 15  1  0
  9 10  1  0
  9 32  1  1
 10 22  1  0
 10 11  1  0
 10 33  1  1
 11 12  1  0
 11 34  1  0
 11 35  1  0
 12 16  1  0
 12 13  1  0
 12 36  1  6
 13 14  1  0
 13 37  1  0
 13 38  1  0
 14 15  1  0
 14 39  1  0
 14 40  1  0
 15 16  1  0
 15 41  1  6
 16 17  1  6
 16 22  1  0
 17 18  2  0
 17 19  1  0
 19 21  1  0
 19 20  1  0
 20 21  1  0
 20 42  1  0
 20 43  1  0
 21 44  1  0
 21 45  1  0
 22 46  1  0
 22 47  1  0
M  END
>  <i_m_ct_stereo_status>  (375) 
1

>  <s_m_source_file>  (375) 
/var/tmp/pbs.5076255.sched01/tmparsu8qf0/123n9qi1oz7.sdf

>  <i_m_source_file_index>  (375) 
38

>  <i_lp_mmshare_version>  (375) 
48012

>  <i_f3d_flags>  (375) 
0

>  <s_epik_input>  (375) 
W0NIM11bQ0hdKFtDSDNdKW4xbltjSF1bY0hdYzFbQ0BASF0oW0NAQEhdMltDSDJdW0NIMl0zKVtDQEhdKFtDSDJdNClbQ0gyXVtDQEBIXTNbQ0BAXTI0Qyg9TylONVtDSDJdW0NIMl01

>  <s_epik_cmdline>  (375) 
J2VwaWtfcHl0aG9uJywgJy1waHQnLCAnMi4wJywgJy1waCcsICc3LjAnLCAnLXRuJywgJzgnLCAnLW1hJywgJzIwMCcsICctaW1hZScsICc8aW5maWxlLm1hZT4nLCAnLW9tYWUnLCAnPG91dGZpbGUubWFlPic=

>  <r_lp_tautomer_probability>  (375) 
1

>  <r_epik_Ionization_Penalty>  (375) 
0.00293407

>  <r_epik_Ionization_Penalty_Charging>  (375) 
0

>  <r_epik_Ionization_Penalty_Neutral>  (375) 
0.00293407

>  <r_epik_State_Penalty>  (375) 
0.0020569

>  <r_epik_Charging_Adjusted_Penalty>  (375) 
0.0020569

>  <i_epik_Tot_Q>  (375) 
0

>  <i_epik_Tot_abs_Q>  (375) 
0

>  <s_lp_Force_Field>  (375) 
OPLS3e

>  <r_lp_Energy>  (375) 
43.6279

>  <b_lp_Chiralities_Consistent>  (375) 
1

>  <s_lp_Variant>  (375) 
116:0-1

>  <s_i_glide_gridfile>  (375) 
pfpi4k_grid

>  <i_i_glide_lignum>  (375) 
38

>  <i_i_glide_rotatable_bonds>  (375) 
4

>  <r_i_docking_score>  (375) 
-3.18226

>  <r_i_glide_ligand_efficiency>  (375) 
-0.144648

>  <r_i_glide_ligand_efficiency_sa>  (375) 
-0.40531

>  <r_i_glide_ligand_efficiency_ln>  (375) 
-0.777861

>  <r_i_glide_gscore>  (375) 
-3.18226

>  <r_i_glide_lipo>  (375) 
-0.683409

>  <r_i_glide_hbond>  (375) 
0

>  <r_i_glide_metal>  (375) 
-0

>  <r_i_glide_rewards>  (375) 
-1.36765

>  <r_i_glide_evdw>  (375) 
-20.9825

>  <r_i_glide_ecoul>  (375) 
-4.04801

>  <r_i_glide_erotb>  (375) 
0.614611

>  <r_i_glide_esite>  (375) 
-0.0894829

>  <r_i_glide_emodel>  (375) 
-30.2642

>  <r_i_glide_energy>  (375) 
-25.0305

>  <r_i_glide_einternal>  (375) 
0.428871

>  <r_i_glide_intrahb_reward>  (375) 
-0

>  <i_i_glide_confnum>  (375) 
5

>  <i_i_glide_posenum>  (375) 
8

>  <r_i_glide_eff_state_penalty>  (375) 
0

>  <ligand_id>  (375) 
116

>  <original_smiles>  (375) 
CC(C)n1nccc1C1C2CC3CCC1C3(C(=O)N1CC1)C2

>  <smiles>  (375) 
[H]c1nn(C([H])(C([H])([H])[H])C([H])([H])[H])c(C2([H])C3([H])C([H])([H])C4([H])C([H])([H])C([H])([H])C2([H])C4(C(=O)N2C([H])([H])C2([H])[H])C3([H])[H])c1[H]

$$$$
116:0:1
     RDKit          3D

 47 51  0  0  1  0  0  0  0  0999 V2000
    1.1132   -2.6533    3.7735 C   0  0  0  0  0  0  0  0  0  0  0  0
    1.5694   -4.1253    3.9937 C   0  0  0  0  0  0  0  0  0  0  0  0
    2.7960   -4.1926    4.9515 C   0  0  0  0  0  0  0  0  0  0  0  0
    1.8367   -4.8363    2.7224 N   0  0  0  0  0  0  0  0  0  0  0  0
    1.0579   -5.9072    2.4228 N   0  0  0  0  0  0  0  0  0  0  0  0
    1.5267   -6.3820    1.2915 C   0  0  0  0  0  0  0  0  0  0  0  0
    2.5866   -5.5891    0.7740 C   0  0  0  0  0  0  0  0  0  0  0  0
    2.7690   -4.5927    1.7067 C   0  0  0  0  0  0  0  0  0  0  0  0
    3.7454   -3.4103    1.7218 C   0  0  2  0  0  0  0  0  0  0  0  0
    3.0898   -2.0516    1.3259 C   0  0  1  0  0  0  0  0  0  0  0  0
    4.0659   -0.9213    1.6993 C   0  0  0  0  0  0  0  0  0  0  0  0
    5.2543   -1.1661    0.7188 C   0  0  1  0  0  0  0  0  0  0  0  0
    6.4875   -1.7253    1.4491 C   0  0  0  0  0  0  0  0  0  0  0  0
    6.3012   -3.2481    1.4301 C   0  0  0  0  0  0  0  0  0  0  0  0
    4.9520   -3.5169    0.7236 C   0  0  2  0  0  0  0  0  0  0  0  0
    4.7102   -2.3041   -0.1771 C   0  0  2  0  0  0  0  0  0  0  0  0
    5.2506   -2.4100   -1.5936 C   0  0  0  0  0  0  0  0  0  0  0  0
    6.4588   -2.2580   -1.8213 O   0  0  0  0  0  0  0  0  0  0  0  0
    4.4156   -2.6431   -2.6197 N   0  0  0  0  0  0  0  0  0  0  0  0
    4.2812   -2.8095   -4.0174 C   0  0  0  0  0  0  0  0  0  0  0  0
    3.0898   -2.8758   -3.0623 C   0  0  0  0  0  0  0  0  0  0  0  0
    3.2118   -2.0887   -0.1517 C   0  0  0  0  0  0  0  0  0  0  0  0
    0.7485   -2.2006    4.7143 H   0  0  0  0  0  0  0  0  0  0  0  0
    0.3007   -2.6236    3.0359 H   0  0  0  0  0  0  0  0  0  0  0  0
    1.9467   -2.0688    3.4436 H   0  0  0  0  0  0  0  0  0  0  0  0
    0.7343   -4.6647    4.4894 H   0  0  0  0  0  0  0  0  0  0  0  0
    2.5347   -3.7287    5.9128 H   0  0  0  0  0  0  0  0  0  0  0  0
    3.6688   -3.6438    4.5864 H   0  0  0  0  0  0  0  0  0  0  0  0
    3.0920   -5.2406    5.1083 H   0  0  0  0  0  0  0  0  0  0  0  0
    1.0754   -7.2532    0.8616 H   0  0  0  0  0  0  0  0  0  0  0  0
    3.1350   -5.7178   -0.1489 H   0  0  0  0  0  0  0  0  0  0  0  0
    4.1808   -3.3433    2.7198 H   0  0  0  0  0  0  0  0  0  0  0  0
    2.0484   -1.8857    1.5786 H   0  0  0  0  0  0  0  0  0  0  0  0
    3.5956    0.0425    1.5078 H   0  0  0  0  0  0  0  0  0  0  0  0
    4.3497   -0.9102    2.7615 H   0  0  0  0  0  0  0  0  0  0  0  0
    5.4866   -0.2360    0.1947 H   0  0  0  0  0  0  0  0  0  0  0  0
    7.3922   -1.4498    0.9096 H   0  0  0  0  0  0  0  0  0  0  0  0
    6.6007   -1.3262    2.4632 H   0  0  0  0  0  0  0  0  0  0  0  0
    7.1066   -3.6919    0.8540 H   0  0  0  0  0  0  0  0  0  0  0  0
    6.3677   -3.6846    2.4324 H   0  0  0  0  0  0  0  0  0  0  0  0
    4.9784   -4.4857    0.2172 H   0  0  0  0  0  0  0  0  0  0  0  0
    4.2896   -1.9259   -4.6564 H   0  0  0  0  0  0  0  0  0  0  0  0
    4.5587   -3.7668   -4.4609 H   0  0  0  0  0  0  0  0  0  0  0  0
    2.6669   -3.8542   -2.8601 H   0  0  0  0  0  0  0  0  0  0  0  0
    2.4087   -2.0299   -3.0531 H   0  0  0  0  0  0  0  0  0  0  0  0
    2.6178   -2.9212   -0.5301 H   0  0  0  0  0  0  0  0  0  0  0  0
    2.9227   -1.1351   -0.5884 H   0  0  0  0  0  0  0  0  0  0  0  0
  1  2  1  0
  1 23  1  0
  1 24  1  0
  1 25  1  0
  2  3  1  0
  2  4  1  0
  2 26  1  0
  3 27  1  0
  3 28  1  0
  3 29  1  0
  4  8  1  0
  4  5  1  0
  5  6  2  0
  6  7  1  0
  6 30  1  0
  7  8  2  0
  7 31  1  0
  8  9  1  0
  9 15  1  0
  9 10  1  0
  9 32  1  1
 10 22  1  0
 10 11  1  0
 10 33  1  6
 11 12  1  0
 11 34  1  0
 11 35  1  0
 12 16  1  0
 12 13  1  0
 12 36  1  6
 13 14  1  0
 13 37  1  0
 13 38  1  0
 14 15  1  0
 14 39  1  0
 14 40  1  0
 15 16  1  0
 15 41  1  6
 16 17  1  6
 16 22  1  0
 17 18  2  0
 17 19  1  0
 19 21  1  0
 19 20  1  0
 20 21  1  0
 20 42  1  0
 20 43  1  0
 21 44  1  0
 21 45  1  0
 22 46  1  0
 22 47  1  0
M  END
>  <i_m_ct_stereo_status>  (376) 
1

>  <s_m_source_file>  (376) 
/var/tmp/pbs.5076255.sched01/tmparsu8qf0/123n9qi1oz7.sdf

>  <i_m_source_file_index>  (376) 
38

>  <i_lp_mmshare_version>  (376) 
48012

>  <i_f3d_flags>  (376) 
0

>  <s_epik_input>  (376) 
W0NIM11bQ0hdKFtDSDNdKW4xbltjSF1bY0hdYzFbQ0BASF0oW0NAQEhdMltDSDJdW0NIMl0zKVtDQEhdKFtDSDJdNClbQ0gyXVtDQEBIXTNbQ0BAXTI0Qyg9TylONVtDSDJdW0NIMl01

>  <s_epik_cmdline>  (376) 
J2VwaWtfcHl0aG9uJywgJy1waHQnLCAnMi4wJywgJy1waCcsICc3LjAnLCAnLXRuJywgJzgnLCAnLW1hJywgJzIwMCcsICctaW1hZScsICc8aW5maWxlLm1hZT4nLCAnLW9tYWUnLCAnPG91dGZpbGUubWFlPic=

>  <r_lp_tautomer_probability>  (376) 
1

>  <r_epik_Ionization_Penalty>  (376) 
0.00293407

>  <r_epik_Ionization_Penalty_Charging>  (376) 
0

>  <r_epik_Ionization_Penalty_Neutral>  (376) 
0.00293407

>  <r_epik_State_Penalty>  (376) 
0.0020569

>  <r_epik_Charging_Adjusted_Penalty>  (376) 
0.0020569

>  <i_epik_Tot_Q>  (376) 
0

>  <i_epik_Tot_abs_Q>  (376) 
0

>  <s_lp_Force_Field>  (376) 
OPLS3e

>  <r_lp_Energy>  (376) 
43.6279

>  <b_lp_Chiralities_Consistent>  (376) 
1

>  <s_lp_Variant>  (376) 
116:0-1

>  <s_i_glide_gridfile>  (376) 
pfpi4k_grid

>  <i_i_glide_lignum>  (376) 
38

>  <i_i_glide_rotatable_bonds>  (376) 
4

>  <r_i_docking_score>  (376) 
-3.17268

>  <r_i_glide_ligand_efficiency>  (376) 
-0.144213

>  <r_i_glide_ligand_efficiency_sa>  (376) 
-0.404089

>  <r_i_glide_ligand_efficiency_ln>  (376) 
-0.775518

>  <r_i_glide_gscore>  (376) 
-3.17268

>  <r_i_glide_lipo>  (376) 
-0.427308

>  <r_i_glide_hbond>  (376) 
-0.145658

>  <r_i_glide_metal>  (376) 
-0

>  <r_i_glide_rewards>  (376) 
-1.48782

>  <r_i_glide_evdw>  (376) 
-23.0248

>  <r_i_glide_ecoul>  (376) 
-3.58743

>  <r_i_glide_erotb>  (376) 
0.614611

>  <r_i_glide_esite>  (376) 
-0.0371428

>  <r_i_glide_emodel>  (376) 
-29.2348

>  <r_i_glide_energy>  (376) 
-26.6123

>  <r_i_glide_einternal>  (376) 
1.11189

>  <r_i_glide_intrahb_reward>  (376) 
-0

>  <i_i_glide_confnum>  (376) 
5

>  <i_i_glide_posenum>  (376) 
22

>  <r_i_glide_eff_state_penalty>  (376) 
0

>  <ligand_id>  (376) 
116

>  <original_smiles>  (376) 
CC(C)n1nccc1C1C2CC3CCC1C3(C(=O)N1CC1)C2

>  <smiles>  (376) 
[H]c1nn(C([H])(C([H])([H])[H])C([H])([H])[H])c(C2([H])C3([H])C([H])([H])C4([H])C([H])([H])C([H])([H])C2([H])C4(C(=O)N2C([H])([H])C2([H])[H])C3([H])[H])c1[H]

$$$$
116:0:2
     RDKit          3D

 47 51  0  0  1  0  0  0  0  0999 V2000
    1.1456   -2.4462    3.5935 C   0  0  0  0  0  0  0  0  0  0  0  0
    1.6527   -3.8535    3.9395 C   0  0  0  0  0  0  0  0  0  0  0  0
    2.8801   -3.8263    4.8703 C   0  0  0  0  0  0  0  0  0  0  0  0
    1.8580   -4.6939    2.7451 N   0  0  0  0  0  0  0  0  0  0  0  0
    1.1072   -5.8112    2.6178 N   0  0  0  0  0  0  0  0  0  0  0  0
    1.5084   -6.4015    1.5092 C   0  0  0  0  0  0  0  0  0  0  0  0
    2.5136   -5.6424    0.8520 C   0  0  0  0  0  0  0  0  0  0  0  0
    2.7211   -4.5440    1.6776 C   0  0  0  0  0  0  0  0  0  0  0  0
    3.6453   -3.3664    1.4875 C   0  0  2  0  0  0  0  0  0  0  0  0
    2.9983   -2.1692    0.7570 C   0  0  1  0  0  0  0  0  0  0  0  0
    3.9056   -0.9356    0.9111 C   0  0  0  0  0  0  0  0  0  0  0  0
    5.1839   -1.3267    0.1196 C   0  0  1  0  0  0  0  0  0  0  0  0
    6.3619   -1.6829    1.0415 C   0  0  0  0  0  0  0  0  0  0  0  0
    6.2073   -3.1772    1.3463 C   0  0  0  0  0  0  0  0  0  0  0  0
    4.9190   -3.6400    0.6384 C   0  0  2  0  0  0  0  0  0  0  0  0
    4.7289   -2.6599   -0.5643 C   0  0  2  0  0  0  0  0  0  0  0  0
    5.4253   -3.0677   -1.8846 C   0  0  0  0  0  0  0  0  0  0  0  0
    6.6496   -3.1316   -1.9364 O   0  0  0  0  0  0  0  0  0  0  0  0
    4.6643   -3.4455   -2.9358 N   0  0  0  0  0  0  0  0  0  0  0  0
    4.6394   -4.1124   -4.1545 C   0  0  0  0  0  0  0  0  0  0  0  0
    3.3992   -3.3676   -3.5379 C   0  0  0  0  0  0  0  0  0  0  0  0
    3.2153   -2.5087   -0.6922 C   0  0  0  0  0  0  0  0  0  0  0  0
    0.8235   -1.8990    4.4869 H   0  0  0  0  0  0  0  0  0  0  0  0
    0.2871   -2.4978    2.9328 H   0  0  0  0  0  0  0  0  0  0  0  0
    1.9165   -1.8601    3.0955 H   0  0  0  0  0  0  0  0  0  0  0  0
    0.8445   -4.3354    4.5052 H   0  0  0  0  0  0  0  0  0  0  0  0
    2.6305   -3.3141    5.8080 H   0  0  0  0  0  0  0  0  0  0  0  0
    3.7495   -3.3277    4.4425 H   0  0  0  0  0  0  0  0  0  0  0  0
    3.1796   -4.8417    5.1428 H   0  0  0  0  0  0  0  0  0  0  0  0
    1.0335   -7.3379    1.2257 H   0  0  0  0  0  0  0  0  0  0  0  0
    3.0100   -5.8600   -0.0861 H   0  0  0  0  0  0  0  0  0  0  0  0
    3.9597   -3.0117    2.4574 H   0  0  0  0  0  0  0  0  0  0  0  0
    1.9390   -1.9816    0.9511 H   0  0  0  0  0  0  0  0  0  0  0  0
    3.4457   -0.0585    0.4690 H   0  0  0  0  0  0  0  0  0  0  0  0
    4.1085   -0.7023    1.9571 H   0  0  0  0  0  0  0  0  0  0  0  0
    5.4525   -0.5414   -0.5964 H   0  0  0  0  0  0  0  0  0  0  0  0
    7.3118   -1.5134    0.5402 H   0  0  0  0  0  0  0  0  0  0  0  0
    6.3764   -1.0762    1.9442 H   0  0  0  0  0  0  0  0  0  0  0  0
    7.0780   -3.7110    0.9808 H   0  0  0  0  0  0  0  0  0  0  0  0
    6.1667   -3.3638    2.4218 H   0  0  0  0  0  0  0  0  0  0  0  0
    5.0177   -4.6903    0.3086 H   0  0  0  0  0  0  0  0  0  0  0  0
    5.0331   -3.6328   -5.0313 H   0  0  0  0  0  0  0  0  0  0  0  0
    4.6606   -5.2044   -4.1103 H   0  0  0  0  0  0  0  0  0  0  0  0
    2.5903   -3.9666   -3.1161 H   0  0  0  0  0  0  0  0  0  0  0  0
    3.1384   -2.3988   -3.9758 H   0  0  0  0  0  0  0  0  0  0  0  0
    2.7052   -3.4385   -0.9479 H   0  0  0  0  0  0  0  0  0  0  0  0
    2.9153   -1.6979   -1.3717 H   0  0  0  0  0  0  0  0  0  0  0  0
  1  2  1  0
  1 23  1  0
  1 24  1  0
  1 25  1  0
  2  3  1  0
  2  4  1  0
  2 26  1  0
  3 27  1  0
  3 28  1  0
  3 29  1  0
  4  8  1  0
  4  5  1  0
  5  6  2  0
  6  7  1  0
  6 30  1  0
  7  8  2  0
  7 31  1  0
  8  9  1  0
  9 15  1  0
  9 10  1  0
  9 32  1  1
 10 22  1  0
 10 11  1  0
 10 33  1  6
 11 12  1  0
 11 34  1  0
 11 35  1  0
 12 16  1  0
 12 13  1  0
 12 36  1  6
 13 14  1  0
 13 37  1  0
 13 38  1  0
 14 15  1  0
 14 39  1  0
 14 40  1  0
 15 16  1  0
 15 41  1  6
 16 17  1  6
 16 22  1  0
 17 18  2  0
 17 19  1  0
 19 21  1  0
 19 20  1  0
 20 21  1  0
 20 42  1  0
 20 43  1  0
 21 44  1  0
 21 45  1  0
 22 46  1  0
 22 47  1  0
M  END
>  <i_m_ct_stereo_status>  (377) 
1

>  <s_m_source_file>  (377) 
/var/tmp/pbs.5076255.sched01/tmparsu8qf0/123n9qi1oz7.sdf

>  <i_m_source_file_index>  (377) 
38

>  <i_lp_mmshare_version>  (377) 
48012

>  <i_f3d_flags>  (377) 
0

>  <s_epik_input>  (377) 
W0NIM11bQ0hdKFtDSDNdKW4xbltjSF1bY0hdYzFbQ0BASF0oW0NAQEhdMltDSDJdW0NIMl0zKVtDQEhdKFtDSDJdNClbQ0gyXVtDQEBIXTNbQ0BAXTI0Qyg9TylONVtDSDJdW0NIMl01

>  <s_epik_cmdline>  (377) 
J2VwaWtfcHl0aG9uJywgJy1waHQnLCAnMi4wJywgJy1waCcsICc3LjAnLCAnLXRuJywgJzgnLCAnLW1hJywgJzIwMCcsICctaW1hZScsICc8aW5maWxlLm1hZT4nLCAnLW9tYWUnLCAnPG91dGZpbGUubWFlPic=

>  <r_lp_tautomer_probability>  (377) 
1

>  <r_epik_Ionization_Penalty>  (377) 
0.00293407

>  <r_epik_Ionization_Penalty_Charging>  (377) 
0

>  <r_epik_Ionization_Penalty_Neutral>  (377) 
0.00293407

>  <r_epik_State_Penalty>  (377) 
0.0020569

>  <r_epik_Charging_Adjusted_Penalty>  (377) 
0.0020569

>  <i_epik_Tot_Q>  (377) 
0

>  <i_epik_Tot_abs_Q>  (377) 
0

>  <s_lp_Force_Field>  (377) 
OPLS3e

>  <r_lp_Energy>  (377) 
43.6279

>  <b_lp_Chiralities_Consistent>  (377) 
1

>  <s_lp_Variant>  (377) 
116:0-1

>  <s_i_glide_gridfile>  (377) 
pfpi4k_grid

>  <i_i_glide_lignum>  (377) 
38

>  <i_i_glide_rotatable_bonds>  (377) 
4

>  <r_i_docking_score>  (377) 
-3.02053

>  <r_i_glide_ligand_efficiency>  (377) 
-0.137297

>  <r_i_glide_ligand_efficiency_sa>  (377) 
-0.384711

>  <r_i_glide_ligand_efficiency_ln>  (377) 
-0.738328

>  <r_i_glide_gscore>  (377) 
-3.02053

>  <r_i_glide_lipo>  (377) 
-0.517768

>  <r_i_glide_hbond>  (377) 
0

>  <r_i_glide_metal>  (377) 
-0

>  <r_i_glide_rewards>  (377) 
-1.62949

>  <r_i_glide_evdw>  (377) 
-22.5749

>  <r_i_glide_ecoul>  (377) 
-2.31194

>  <r_i_glide_erotb>  (377) 
0.614611

>  <r_i_glide_esite>  (377) 
-0.012346

>  <r_i_glide_emodel>  (377) 
-26.8963

>  <r_i_glide_energy>  (377) 
-24.8868

>  <r_i_glide_einternal>  (377) 
3.90793

>  <r_i_glide_intrahb_reward>  (377) 
-0

>  <i_i_glide_confnum>  (377) 
5

>  <i_i_glide_posenum>  (377) 
18

>  <r_i_glide_eff_state_penalty>  (377) 
0

>  <ligand_id>  (377) 
116

>  <original_smiles>  (377) 
CC(C)n1nccc1C1C2CC3CCC1C3(C(=O)N1CC1)C2

>  <smiles>  (377) 
[H]c1nn(C([H])(C([H])([H])[H])C([H])([H])[H])c(C2([H])C3([H])C([H])([H])C4([H])C([H])([H])C([H])([H])C2([H])C4(C(=O)N2C([H])([H])C2([H])[H])C3([H])[H])c1[H]

$$$$
